@<TRIPOS>MOLECULE
1,1,2-trichloroethene
     6     5     1     0     0
SMALL
NO_CHARGES
****
Generated from the CSD

@<TRIPOS>ATOM
     1 C1      -0.0003  -0.6200  -0.0650   C.2       1 RES1   0.0000
     2 C2       0.0003   0.6760   0.2636   C.2       1 RES1   0.0000
     3 Cl3      0.0012   1.8751  -0.9681   Cl        1 RES1   0.0000
     4 Cl4     -0.0013  -1.8190   1.1667   Cl        1 RES1   0.0000
     5 Cl5     -0.0003  -1.0871  -1.7193   Cl        1 RES1   0.0000
     6 H6       0.0003   0.9750   1.3222   H         1 RES1   0.0000
@<TRIPOS>BOND
     1     1     2    2
     2     1     4    1
     3     1     5    1
     4     2     3    1
     5     2     6    1
@<TRIPOS>SUBSTRUCTURE
     1 RES1        1 GROUP             0 ****  ****    0  
