@<TRIPOS>MOLECULE
1,1,1-trichloroethane
     8     7     1     0     0
SMALL
NO_CHARGES
****
Generated from the CSD

@<TRIPOS>ATOM
     1 C1       0.6763   0.0000   0.0000   C.3       1 RES1   0.0000
     2 C2      -0.8467   0.0000   0.0000   C.3       1 RES1   0.0000
     3 Cl3      1.2754   1.6920   0.0000   Cl        1 RES1   0.0000
     4 Cl4      1.2737  -0.8454   1.4664   Cl        1 RES1   0.0000
     5 Cl5      1.2743  -0.8462  -1.4657   Cl        1 RES1   0.0000
     6 H6      -1.2183  -1.0492   0.0000   H         1 RES1   0.0000
     7 H7      -1.2172   0.5242  -0.9093   H         1 RES1   0.0000
     8 H8      -1.2176   0.5247   0.9088   H         1 RES1   0.0000
@<TRIPOS>BOND
     1     1     2    1
     2     1     3    1
     3     1     4    1
     4     1     5    1
     5     2     6    1
     6     2     7    1
     7     2     8    1
@<TRIPOS>SUBSTRUCTURE
     1 RES1        1 GROUP             0 ****  ****    0  
