@<TRIPOS>MOLECULE
1,1,1-trifluroethanol
     9     8     1     0     0
SMALL
NO_CHARGES
****
Generated from the CSD

@<TRIPOS>ATOM
     1 C1      -0.7646   0.6405   0.0000   C.3       1 RES1   0.0000
     2 C2       0.5544  -0.1210   0.0000   C.3       1 RES1   0.0000
     3 F3      -0.5109   2.0092   0.0000   F         1 RES1   0.0000
     4 F4      -1.4936   0.3044  -1.1372   F         1 RES1   0.0000
     5 F5      -1.4944   0.3040   1.1366   F         1 RES1   0.0000
     6 O6       0.2989  -1.4996   0.0000   O.3       1 RES1   0.0000
     7 H7       1.1373   0.1477   0.9093   H         1 RES1   0.0000
     8 H8       1.1379   0.1480  -0.9088   H         1 RES1   0.0000
     9 H9       1.1352  -1.9331   0.0000   H         1 RES1   0.0000
@<TRIPOS>BOND
     1     1     2    1
     2     1     3    1
     3     1     4    1
     4     1     5    1
     5     2     6    1
     6     2     7    1
     7     2     8    1
     8     6     9    1
@<TRIPOS>SUBSTRUCTURE
     1 RES1        1 GROUP             0 ****  ****    0  
