@<TRIPOS>MOLECULE
1,1-diethoxypropane
    25    24     1     0     0
SMALL
NO_CHARGES
****
Generated from the CSD

@<TRIPOS>ATOM
     1 C1      -0.0495   0.4905  -0.3538   C.3       1 RES1   0.0000
     2 C2       0.0127   1.9822  -0.6616   C.3       1 RES1   0.0000
     3 C3      -1.3480   2.5585  -1.0772   C.3       1 RES1   0.0000
     4 O4       1.2457   0.0368  -0.0062   O.3       1 RES1   0.0000
     5 C5       1.7228  -0.9791  -0.8539   C.3       1 RES1   0.0000
     6 C6       3.1063  -1.4083  -0.3747   C.3       1 RES1   0.0000
     7 O7      -0.8675   0.2887   0.7821   O.3       1 RES1   0.0000
     8 C8      -1.2166  -1.0562   1.0007   C.3       1 RES1   0.0000
     9 C9      -2.1535  -1.1271   2.2035   C.3       1 RES1   0.0000
    10 H10     -0.4697  -0.0522  -1.2290   H         1 RES1   0.0000
    11 H11      0.3933   2.5355   0.2302   H         1 RES1   0.0000
    12 H12      0.7409   2.1528  -1.4915   H         1 RES1   0.0000
    13 H13     -1.2610   3.6401  -1.3310   H         1 RES1   0.0000
    14 H14     -1.7505   2.0325  -1.9729   H         1 RES1   0.0000
    15 H15     -2.0983   2.4674  -0.2593   H         1 RES1   0.0000
    16 H16      1.7887  -0.5852  -1.8953   H         1 RES1   0.0000
    17 H17      1.0295  -1.8514  -0.8280   H         1 RES1   0.0000
    18 H18      3.5228  -2.2108  -1.0261   H         1 RES1   0.0000
    19 H19      3.0648  -1.8025   0.6668   H         1 RES1   0.0000
    20 H20      3.8200  -0.5527  -0.3900   H         1 RES1   0.0000
    21 H21     -0.3020  -1.6566   1.2092   H         1 RES1   0.0000
    22 H22     -1.7328  -1.4617   0.0999   H         1 RES1   0.0000
    23 H23     -2.4565  -2.1791   2.4119   H         1 RES1   0.0000
    24 H24     -3.0806  -0.5351   2.0254   H         1 RES1   0.0000
    25 H25     -1.6613  -0.7268   3.1196   H         1 RES1   0.0000
@<TRIPOS>BOND
     1     1     2    1
     2     1     4    1
     3     1     7    1
     4     1    10    1
     5     2     3    1
     6     2    11    1
     7     2    12    1
     8     3    13    1
     9     3    14    1
    10     3    15    1
    11     4     5    1
    12     5     6    1
    13     5    16    1
    14     5    17    1
    15     6    18    1
    16     6    19    1
    17     6    20    1
    18     7     8    1
    19     8     9    1
    20     8    21    1
    21     8    22    1
    22     9    23    1
    23     9    24    1
    24     9    25    1
@<TRIPOS>SUBSTRUCTURE
     1 RES1        1 GROUP             0 ****  ****    0  
