@<TRIPOS>MOLECULE
1,1-dimethoxymethane
    13    12     1     0     0
SMALL
NO_CHARGES
****
Generated from the CSD

@<TRIPOS>ATOM
     1 C1       0.0152  -0.0554   0.0964   C.3       1 RES1   0.0000
     2 O2      -0.8922  -0.0839   1.1648   O.3       1 RES1   0.0000
     3 C3      -1.9904   0.7004   0.7848   C.3       1 RES1   0.0000
     4 O4       1.1412  -0.8263   0.4180   O.3       1 RES1   0.0000
     5 C5       2.0064  -0.7588  -0.6831   C.3       1 RES1   0.0000
     6 H6      -0.4712  -0.4719  -0.8139   H         1 RES1   0.0000
     7 H7       0.3278   0.9952  -0.0967   H         1 RES1   0.0000
     8 H8      -2.7426   0.7088   1.6051   H         1 RES1   0.0000
     9 H9      -1.6505   1.7409   0.5832   H         1 RES1   0.0000
    10 H10     -2.4497   0.2744  -0.1352   H         1 RES1   0.0000
    11 H11      2.2923   0.3012  -0.8657   H         1 RES1   0.0000
    12 H12      2.9204  -1.3588  -0.4747   H         1 RES1   0.0000
    13 H13      1.4933  -1.1659  -1.5830   H         1 RES1   0.0000
@<TRIPOS>BOND
     1     1     2    1
     2     1     4    1
     3     1     6    1
     4     1     7    1
     5     2     3    1
     6     3     8    1
     7     3     9    1
     8     3    10    1
     9     4     5    1
    10     5    11    1
    11     5    12    1
    12     5    13    1
@<TRIPOS>SUBSTRUCTURE
     1 RES1        1 GROUP             0 ****  ****    0  
