@<TRIPOS>MOLECULE
1,2-dichloroethane
     8     7     1     0     0
SMALL
NO_CHARGES
****
Generated from the CSD

@<TRIPOS>ATOM
     1 C1       0.0568   0.4155   0.6363   C.3       1 RES1   0.0000
     2 C2      -0.0568  -0.4155  -0.6363   C.3       1 RES1   0.0000
     3 Cl3     -0.8131   0.5184  -1.9553   Cl        1 RES1   0.0000
     4 Cl4      0.8131  -0.5184   1.9553   Cl        1 RES1   0.0000
     5 H5       0.6736   1.3208   0.4571   H         1 RES1   0.0000
     6 H6      -0.9469   0.7442   0.9781   H         1 RES1   0.0000
     7 H7      -0.6736  -1.3208  -0.4571   H         1 RES1   0.0000
     8 H8       0.9469  -0.7442  -0.9781   H         1 RES1   0.0000
@<TRIPOS>BOND
     1     1     2    1
     2     1     4    1
     3     1     5    1
     4     1     6    1
     5     2     3    1
     6     2     7    1
     7     2     8    1
@<TRIPOS>SUBSTRUCTURE
     1 RES1        1 GROUP             0 ****  ****    0  
