@<TRIPOS>MOLECULE
1,2-dimethoxyethane
    16    15     1     0     0
SMALL
NO_CHARGES
****
Generated from the CSD

@<TRIPOS>ATOM
     1 C1      -0.6413  -0.4091   0.0000   C.3       1 RES1   0.0000
     2 C2       0.6413   0.4091   0.0001   C.3       1 RES1   0.0000
     3 O3       1.7395  -0.4701  -0.0022   O.3       1 RES1   0.0000
     4 C4       2.9728   0.2164  -0.0007   C.3       1 RES1   0.0000
     5 O5      -1.7395   0.4701   0.0024   O.3       1 RES1   0.0000
     6 C6      -2.9728  -0.2164   0.0006   C.3       1 RES1   0.0000
     7 H7      -0.6826  -1.0505  -0.9109   H         1 RES1   0.0000
     8 H8      -0.6812  -1.0535   0.9088   H         1 RES1   0.0000
     9 H9       0.6826   1.0505   0.9110   H         1 RES1   0.0000
    10 H10      0.6812   1.0535  -0.9087   H         1 RES1   0.0000
    11 H11      3.7880  -0.5413  -0.0014   H         1 RES1   0.0000
    12 H12      3.0668   0.8438  -0.9148   H         1 RES1   0.0000
    13 H13      3.0660   0.8410   0.9154   H         1 RES1   0.0000
    14 H14     -3.7880   0.5413   0.0016   H         1 RES1   0.0000
    15 H15     -3.0660  -0.8407  -0.9157   H         1 RES1   0.0000
    16 H16     -3.0668  -0.8441   0.9144   H         1 RES1   0.0000
@<TRIPOS>BOND
     1     1     2    1
     2     1     5    1
     3     1     7    1
     4     1     8    1
     5     2     3    1
     6     2     9    1
     7     2    10    1
     8     3     4    1
     9     4    11    1
    10     4    12    1
    11     4    13    1
    12     5     6    1
    13     6    14    1
    14     6    15    1
    15     6    16    1
@<TRIPOS>SUBSTRUCTURE
     1 RES1        1 GROUP             0 ****  ****    0  
