@<TRIPOS>MOLECULE
1,2-dichloroethene
     6     5     1     0     0
SMALL
NO_CHARGES
****
Generated from the CSD

@<TRIPOS>ATOM
     1 C1      -0.2917   0.6015   0.0000   C.2       1 RES1   0.0000
     2 C2       0.2917  -0.6015   0.0000   C.2       1 RES1   0.0000
     3 Cl3      0.6727   2.0245   0.0000   Cl        1 RES1   0.0000
     4 Cl4     -0.6727  -2.0245   0.0000   Cl        1 RES1   0.0000
     5 H5       1.3889  -0.6807   0.0000   H         1 RES1   0.0000
     6 H6      -1.3889   0.6807   0.0000   H         1 RES1   0.0000
@<TRIPOS>BOND
     1     1     2    2
     2     1     3    1
     3     1     6    1
     4     2     4    1
     5     2     5    1
@<TRIPOS>SUBSTRUCTURE
     1 RES1        1 GROUP             0 ****  ****    0  
