@<TRIPOS>MOLECULE
1,4-dioxane
    14    14     1     0     0
SMALL
NO_CHARGES
****
Generated from the CSD

@<TRIPOS>ATOM
     1 O1      -0.4328   0.8081   1.0498   O.3       1 RES1   0.0000
     2 C2       0.4058  -0.2930   1.2876   C.3       1 RES1   0.0000
     3 C3       1.2576  -0.5685   0.0611   C.3       1 RES1   0.0000
     4 O4       0.4326  -0.8081  -1.0499   O.3       1 RES1   0.0000
     5 C5      -0.4056   0.2933  -1.2876   C.3       1 RES1   0.0000
     6 C6      -1.2577   0.5682  -0.0612   C.3       1 RES1   0.0000
     7 H7       1.0514  -0.0423   2.1610   H         1 RES1   0.0000
     8 H8      -0.2122  -1.1780   1.5647   H         1 RES1   0.0000
     9 H9       1.8833  -1.4775   0.2184   H         1 RES1   0.0000
    10 H10      1.9432   0.2816  -0.1614   H         1 RES1   0.0000
    11 H11     -1.0510   0.0432  -2.1615   H         1 RES1   0.0000
    12 H12      0.2127   1.1784  -1.5641   H         1 RES1   0.0000
    13 H13     -1.8839   1.4769  -0.2184   H         1 RES1   0.0000
    14 H14     -1.9428  -0.2822   0.1611   H         1 RES1   0.0000
@<TRIPOS>BOND
     1     1     2    1
     2     1     6    1
     3     2     3    1
     4     2     7    1
     5     2     8    1
     6     3     4    1
     7     3     9    1
     8     3    10    1
     9     4     5    1
    10     5     6    1
    11     5    11    1
    12     5    12    1
    13     6    13    1
    14     6    14    1
@<TRIPOS>SUBSTRUCTURE
     1 RES1        1 GROUP             0 ****  ****    0  
