@<TRIPOS>MOLECULE
1-butanol
    15    14     1     0     0
SMALL
NO_CHARGES
****
Generated from the CSD

@<TRIPOS>ATOM
     1 C1      -2.1724  -0.4421  -0.0614   C.3       1 RES1   0.0000
     2 C2      -0.9107   0.4237   0.0527   C.3       1 RES1   0.0000
     3 C3       0.3711  -0.4169  -0.0539   C.3       1 RES1   0.0000
     4 C4       1.6239   0.4463   0.0611   C.3       1 RES1   0.0000
     5 O5       2.7731  -0.3705  -0.0420   O.3       1 RES1   0.0000
     6 H6      -2.2101  -1.2058   0.7487   H         1 RES1   0.0000
     7 H7      -2.2065  -0.9756  -1.0388   H         1 RES1   0.0000
     8 H8      -3.0932   0.1808   0.0169   H         1 RES1   0.0000
     9 H9      -0.9228   0.9640   1.0295   H         1 RES1   0.0000
    10 H10     -0.9197   1.1949  -0.7544   H         1 RES1   0.0000
    11 H11      0.3821  -0.9558  -1.0313   H         1 RES1   0.0000
    12 H12      0.3782  -1.1878   0.7533   H         1 RES1   0.0000
    13 H13      1.6723   0.9675   1.0431   H         1 RES1   0.0000
    14 H14      1.6767   1.2006  -0.7554   H         1 RES1   0.0000
    15 H15      3.5587   0.1770   0.0320   H         1 RES1   0.0000
@<TRIPOS>BOND
     1     1     2    1
     2     1     6    1
     3     1     7    1
     4     1     8    1
     5     2     3    1
     6     2     9    1
     7     2    10    1
     8     3     4    1
     9     3    11    1
    10     3    12    1
    11     4     5    1
    12     4    13    1
    13     4    14    1
    14     5    15    1
@<TRIPOS>SUBSTRUCTURE
     1 RES1        1 GROUP             0 ****  ****    0  
