@<TRIPOS>MOLECULE
1-pentanol
    18    17     1     0     0
SMALL
NO_CHARGES
****
Generated from the CSD

@<TRIPOS>ATOM
     1 C1      -1.9929  -0.5563  -0.8927   C.3       1 RES1   0.0000
     2 C2      -0.6739   0.2052  -0.8927   C.3       1 RES1   0.0000
     3 C3       0.1249  -0.1616   0.3511   C.3       1 RES1   0.0000
     4 C4       1.4439   0.5999   0.3511   C.3       1 RES1   0.0000
     5 C5       2.2426   0.2332   1.5948   C.3       1 RES1   0.0000
     6 O6      -2.7282  -0.2187  -2.0376   O.3       1 RES1   0.0000
     7 H7      -1.7889  -1.6504  -0.8927   H         1 RES1   0.0000
     8 H8      -2.5766  -0.2868   0.0158   H         1 RES1   0.0000
     9 H9      -0.8778   1.2994  -0.8927   H         1 RES1   0.0000
    10 H10     -0.0901  -0.0643  -1.8012   H         1 RES1   0.0000
    11 H11      0.3288  -1.2557   0.3511   H         1 RES1   0.0000
    12 H12     -0.4589   0.1079   1.2596   H         1 RES1   0.0000
    13 H13      1.2399   1.6941   0.3511   H         1 RES1   0.0000
    14 H14      2.0276   0.3304  -0.5574   H         1 RES1   0.0000
    15 H15      3.2065   0.7897   1.5948   H         1 RES1   0.0000
    16 H16      2.4466  -0.8610   1.5948   H         1 RES1   0.0000
    17 H17      1.6589   0.5026   2.5033   H         1 RES1   0.0000
    18 H18     -3.5325  -0.7077  -2.0006   H         1 RES1   0.0000
@<TRIPOS>BOND
     1     1     2    1
     2     1     6    1
     3     1     7    1
     4     1     8    1
     5     2     3    1
     6     2     9    1
     7     2    10    1
     8     3     4    1
     9     3    11    1
    10     3    12    1
    11     4     5    1
    12     4    13    1
    13     4    14    1
    14     5    15    1
    15     5    16    1
    16     5    17    1
    17     6    18    1
@<TRIPOS>SUBSTRUCTURE
     1 RES1        1 GROUP             0 ****  ****    0  
