@<TRIPOS>MOLECULE
1-propanol
    12    11     1     0     0
SMALL
NO_CHARGES
****
Generated from the CSD

@<TRIPOS>ATOM
     1 C1       0.3504  -0.9396  -0.1030   C.3       1 RES1   0.0000
     2 C2      -0.4733   0.3208  -0.3465   C.3       1 RES1   0.0000
     3 C3      -0.0919   1.4395   0.6312   C.3       1 RES1   0.0000
     4 O4      -0.0257  -1.9382  -1.0297   O.3       1 RES1   0.0000
     5 H5       1.4384  -0.7500  -0.2409   H         1 RES1   0.0000
     6 H6       0.1775  -1.3495   0.9171   H         1 RES1   0.0000
     7 H7      -1.5587   0.0841  -0.2343   H         1 RES1   0.0000
     8 H8      -0.3148   0.6739  -1.3936   H         1 RES1   0.0000
     9 H9      -0.6980   2.3561   0.4462   H         1 RES1   0.0000
    10 H10      0.9824   1.7151   0.5247   H         1 RES1   0.0000
    11 H11     -0.2639   1.1252   1.6863   H         1 RES1   0.0000
    12 H12      0.4779  -2.7376  -0.8576   H         1 RES1   0.0000
@<TRIPOS>BOND
     1     1     2    1
     2     1     4    1
     3     1     5    1
     4     1     6    1
     5     2     3    1
     6     2     7    1
     7     2     8    1
     8     3     9    1
     9     3    10    1
    10     3    11    1
    11     4    12    1
@<TRIPOS>SUBSTRUCTURE
     1 RES1        1 GROUP             0 ****  ****    0  
