@<TRIPOS>MOLECULE
2,2-dimethoxypropane
    19    18     1     0     0
SMALL
NO_CHARGES
****
Generated from the CSD

@<TRIPOS>ATOM
     1 C1      -1.0534   1.8040  -0.0359   C.3       1 RES1   0.0000
     2 C2      -0.3084   0.4677   0.0733   C.3       1 RES1   0.0000
     3 C3       1.1883   0.7712   0.0411   C.3       1 RES1   0.0000
     4 O4      -0.7186  -0.0724   1.3121   O.3       1 RES1   0.0000
     5 C5      -0.2231  -1.3536   1.6284   C.3       1 RES1   0.0000
     6 O6      -0.8023  -0.3335  -0.9799   O.3       1 RES1   0.0000
     7 C7       0.1339  -1.1509  -1.6471   C.3       1 RES1   0.0000
     8 H8      -2.1576   1.6573   0.0002   H         1 RES1   0.0000
     9 H9      -0.8198   2.3241  -0.9930   H         1 RES1   0.0000
    10 H10     -0.7838   2.4938   0.7963   H         1 RES1   0.0000
    11 H11      1.8437  -0.1242   0.0844   H         1 RES1   0.0000
    12 H12      1.4674   1.3394  -0.8750   H         1 RES1   0.0000
    13 H13      1.4756   1.4058   0.9105   H         1 RES1   0.0000
    14 H14     -0.5766  -1.6058   2.6533   H         1 RES1   0.0000
    15 H15     -0.6367  -2.1169   0.9351   H         1 RES1   0.0000
    16 H16      0.8866  -1.3682   1.6394   H         1 RES1   0.0000
    17 H17     -0.4278  -1.7850  -2.3693   H         1 RES1   0.0000
    18 H18      0.8470  -0.5288  -2.2307   H         1 RES1   0.0000
    19 H19      0.6658  -1.8245  -0.9432   H         1 RES1   0.0000
@<TRIPOS>BOND
     1     1     2    1
     2     1     8    1
     3     1     9    1
     4     1    10    1
     5     2     3    1
     6     2     4    1
     7     2     6    1
     8     3    11    1
     9     3    12    1
    10     3    13    1
    11     4     5    1
    12     5    14    1
    13     5    15    1
    14     5    16    1
    15     6     7    1
    16     7    17    1
    17     7    18    1
    18     7    19    1
@<TRIPOS>SUBSTRUCTURE
     1 RES1        1 GROUP             0 ****  ****    0  
