@<TRIPOS>MOLECULE
2-butanol
    15    14     1     0     0
SMALL
NO_CHARGES
****
Generated from the CSD

@<TRIPOS>ATOM
     1 C1       1.9806   0.2213  -0.0930   C.3       1 RES1   0.0000
     2 C2       0.6490  -0.4641   0.2430   C.3       1 RES1   0.0000
     3 C3      -0.5553   0.2382  -0.3848   C.3       1 RES1   0.0000
     4 C4      -1.8636  -0.4941  -0.0983   C.3       1 RES1   0.0000
     5 O5      -0.6531   1.5487   0.1232   O.3       1 RES1   0.0000
     6 H6       2.1414   0.2687  -1.1942   H         1 RES1   0.0000
     7 H7       2.8379  -0.3361   0.3502   H         1 RES1   0.0000
     8 H8       2.0175   1.2605   0.3053   H         1 RES1   0.0000
     9 H9       0.5217  -0.5032   1.3510   H         1 RES1   0.0000
    10 H10      0.6876  -1.5188  -0.1217   H         1 RES1   0.0000
    11 H11     -0.4121   0.3249  -1.4880   H         1 RES1   0.0000
    12 H12     -1.8431  -1.5290  -0.5100   H         1 RES1   0.0000
    13 H13     -2.7291   0.0345  -0.5599   H         1 RES1   0.0000
    14 H14     -2.0525  -0.5641   0.9972   H         1 RES1   0.0000
    15 H15     -0.7269   1.5119   1.0800   H         1 RES1   0.0000
@<TRIPOS>BOND
     1     1     2    1
     2     1     6    1
     3     1     7    1
     4     1     8    1
     5     2     3    1
     6     2     9    1
     7     2    10    1
     8     3     4    1
     9     3     5    1
    10     3    11    1
    11     4    12    1
    12     4    13    1
    13     4    14    1
    14     5    15    1
@<TRIPOS>SUBSTRUCTURE
     1 RES1        1 GROUP             0 ****  ****    0  
