@<TRIPOS>MOLECULE
2-ethoxyethanol
    16    15     1     0     0
SMALL
NO_CHARGES
****
Generated from the CSD

@<TRIPOS>ATOM
     1 C1       2.0517   0.5068  -0.4038   C.3       1 RES1   0.0000
     2 C2       0.8565   0.0005   0.3929   C.3       1 RES1   0.0000
     3 O3      -0.3021   0.0947  -0.3908   O.3       1 RES1   0.0000
     4 C4      -2.6576  -0.3082  -0.4032   C.3       1 RES1   0.0000
     5 O5       3.2104   0.4126   0.3799   O.3       1 RES1   0.0000
     6 C6      -1.3616  -0.3834   0.3932   C.3       1 RES1   0.0000
     7 H7       2.1739  -0.1110  -1.3214   H         1 RES1   0.0000
     8 H8       1.8832   1.5690  -0.6903   H         1 RES1   0.0000
     9 H9       0.7344   0.6183   1.3106   H         1 RES1   0.0000
    10 H10      1.0250  -1.0617   0.6795   H         1 RES1   0.0000
    11 H11     -3.4987  -0.6878   0.2192   H         1 RES1   0.0000
    12 H12     -2.5652  -0.9312  -1.3208   H         1 RES1   0.0000
    13 H13     -2.8559   0.7488  -0.6898   H         1 RES1   0.0000
    14 H14     -1.4540   0.2396   1.3108   H         1 RES1   0.0000
    15 H15     -1.1632  -1.4405   0.6797   H         1 RES1   0.0000
    16 H16      3.9233   0.7336  -0.1456   H         1 RES1   0.0000
@<TRIPOS>BOND
     1     1     2    1
     2     1     5    1
     3     1     7    1
     4     1     8    1
     5     2     3    1
     6     2     9    1
     7     2    10    1
     8     3     6    1
     9     4     6    1
    10     4    11    1
    11     4    12    1
    12     4    13    1
    13     5    16    1
    14     6    14    1
    15     6    15    1
@<TRIPOS>SUBSTRUCTURE
     1 RES1        1 GROUP             0 ****  ****    0  
