@<TRIPOS>MOLECULE
2-methoxyethanol
    13    12     1     0     0
SMALL
NO_CHARGES
****
Generated from the CSD

@<TRIPOS>ATOM
     1 C1       0.2723  -1.4880   0.1004   C.3       1 RES1   0.0000
     2 C2      -0.1973  -0.0697  -0.1949   C.3       1 RES1   0.0000
     3 O3       0.5281   0.8367   0.5912   O.3       1 RES1   0.0000
     4 O4      -0.4531  -2.3944  -0.6857   O.3       1 RES1   0.0000
     5 H5       1.3561  -1.5765  -0.1369   H         1 RES1   0.0000
     6 C6       0.0529   2.1174   0.2758   C.3       1 RES1   0.0000
     7 H7       0.1076  -1.7165   1.1772   H         1 RES1   0.0000
     8 H8       0.2150   2.3164  -0.8072   H         1 RES1   0.0000
     9 H9      -1.2811   0.0188   0.0425   H         1 RES1   0.0000
    10 H10     -0.0325   0.1588  -1.2717   H         1 RES1   0.0000
    11 H11     -1.0345   2.1766   0.5061   H         1 RES1   0.0000
    12 H12     -0.1348  -3.2556  -0.4749   H         1 RES1   0.0000
    13 H13      0.6013   2.8759   0.8780   H         1 RES1   0.0000
@<TRIPOS>BOND
     1     1     2    1
     2     1     4    1
     3     1     5    1
     4     1     7    1
     5     2     3    1
     6     2     9    1
     7     2    10    1
     8     3     6    1
     9     4    12    1
    10     6     8    1
    11     6    11    1
    12     6    13    1
@<TRIPOS>SUBSTRUCTURE
     1 RES1        1 GROUP             0 ****  ****    0  
