@<TRIPOS>MOLECULE
2-methyl-1-propanol
    15    14     1     0     0
SMALL
NO_CHARGES
****
Generated from the CSD

@<TRIPOS>ATOM
     1 C1       0.2252  -1.0410   0.6240   C.3       1 RES1   0.0000
     2 C2      -0.2050   0.3670   0.2342   C.3       1 RES1   0.0000
     3 O3       1.4041  -0.9777   1.3801   O.3       1 RES1   0.0000
     4 C4       0.8928   1.0235  -0.5925   C.3       1 RES1   0.0000
     5 C5      -1.4852   0.2965  -0.5879   C.3       1 RES1   0.0000
     6 H6      -0.5774  -1.5196   1.2286   H         1 RES1   0.0000
     7 H7       0.4063  -1.6414  -0.2956   H         1 RES1   0.0000
     8 H8      -0.3861   0.9673   1.1537   H         1 RES1   0.0000
     9 H9       1.6361  -1.8637   1.6004   H         1 RES1   0.0000
    10 H10      1.0738   0.4231  -1.5120   H         1 RES1   0.0000
    11 H11      0.5783   2.0524  -0.8774   H         1 RES1   0.0000
    12 H12      1.8283   1.0750   0.0083   H         1 RES1   0.0000
    13 H13     -1.8005   1.3251  -0.8733   H         1 RES1   0.0000
    14 H14     -2.2876  -0.1826   0.0165   H         1 RES1   0.0000
    15 H15     -1.3031  -0.3040  -1.5071   H         1 RES1   0.0000
@<TRIPOS>BOND
     1     1     2    1
     2     1     3    1
     3     1     6    1
     4     1     7    1
     5     2     4    1
     6     2     5    1
     7     2     8    1
     8     3     9    1
     9     4    10    1
    10     4    11    1
    11     4    12    1
    12     5    13    1
    13     5    14    1
    14     5    15    1
@<TRIPOS>SUBSTRUCTURE
     1 RES1        1 GROUP             0 ****  ****    0  
