@<TRIPOS>MOLECULE
2-methyltetrahydrofuran
    16    16     1     0     0
SMALL
NO_CHARGES
****
Generated from the CSD

@<TRIPOS>ATOM
     1 O1       0.6295   1.1611  -0.4128   O.3       1 RES1   0.0000
     2 C2      -0.6364   0.4913  -0.3274   C.3       1 RES1   0.0000
     3 C3       1.5336   0.5432   0.5141   C.3       1 RES1   0.0000
     4 C4      -0.4086  -0.7709   0.4757   C.3       1 RES1   0.0000
     5 C5      -1.1394   0.1416  -1.7218   C.3       1 RES1   0.0000
     6 C6       0.7001  -0.3508   1.4062   C.3       1 RES1   0.0000
     7 H7      -1.4006   1.1404   0.1558   H         1 RES1   0.0000
     8 H8       2.0475   1.3201   1.1233   H         1 RES1   0.0000
     9 H9       2.3157  -0.0417  -0.0196   H         1 RES1   0.0000
    10 H10     -1.3226  -1.0613   1.0406   H         1 RES1   0.0000
    11 H11     -0.1619  -1.6610  -0.1453   H         1 RES1   0.0000
    12 H12     -1.3033   1.0765  -2.3029   H         1 RES1   0.0000
    13 H13     -2.0986  -0.4170  -1.6403   H         1 RES1   0.0000
    14 H14     -0.3841  -0.4901  -2.2408   H         1 RES1   0.0000
    15 H15      1.2858  -1.2287   1.7598   H         1 RES1   0.0000
    16 H16      0.3433   0.1473   2.3354   H         1 RES1   0.0000
@<TRIPOS>BOND
     1     1     2    1
     2     1     3    1
     3     2     4    1
     4     2     5    1
     5     2     7    1
     6     3     6    1
     7     3     8    1
     8     3     9    1
     9     4     6    1
    10     4    10    1
    11     4    11    1
    12     5    12    1
    13     5    13    1
    14     5    14    1
    15     6    15    1
    16     6    16    1
@<TRIPOS>SUBSTRUCTURE
     1 RES1        1 GROUP             0 ****  ****    0  
