@<TRIPOS>MOLECULE
3-methyl-1-butanol
    18    17     1     0     0
SMALL
NO_CHARGES
****
Generated from the CSD

@<TRIPOS>ATOM
     1 C1      -0.2929  -1.7511  -0.0824   C.3       1 RES1   0.0000
     2 C2      -0.7625  -0.3327  -0.3777   C.3       1 RES1   0.0000
     3 C3       0.0255   0.6519   0.4763   C.3       1 RES1   0.0000
     4 C4       1.5089   0.5313   0.1531   C.3       1 RES1   0.0000
     5 O5      -1.0183  -2.6574  -0.8685   O.3       1 RES1   0.0000
     6 C6      -0.4445   2.0698   0.1792   C.3       1 RES1   0.0000
     7 H7       0.7909  -1.8395  -0.3198   H         1 RES1   0.0000
     8 H8      -0.4576  -1.9796   0.9944   H         1 RES1   0.0000
     9 H9      -1.8463  -0.2443  -0.1404   H         1 RES1   0.0000
    10 H10     -0.5978  -0.1042  -1.4545   H         1 RES1   0.0000
    11 H11     -0.1393   0.4234   1.5530   H         1 RES1   0.0000
    12 H12      2.0847   1.2508   0.7772   H         1 RES1   0.0000
    13 H13      1.8524  -0.5049   0.3702   H         1 RES1   0.0000
    14 H14      1.6737   0.7598  -0.9236   H         1 RES1   0.0000
    15 H15     -0.7000  -3.5186  -0.6577   H         1 RES1   0.0000
    16 H16      0.1308   2.7901   0.8029   H         1 RES1   0.0000
    17 H17     -1.5284   2.1580   0.4160   H         1 RES1   0.0000
    18 H18     -0.2793   2.2972  -0.8977   H         1 RES1   0.0000
@<TRIPOS>BOND
     1     1     2    1
     2     1     5    1
     3     1     7    1
     4     1     8    1
     5     2     3    1
     6     2     9    1
     7     2    10    1
     8     3     4    1
     9     3     6    1
    10     3    11    1
    11     4    12    1
    12     4    13    1
    13     4    14    1
    14     5    15    1
    15     6    16    1
    16     6    17    1
    17     6    18    1
@<TRIPOS>SUBSTRUCTURE
     1 RES1        1 GROUP             0 ****  ****    0  
