@<TRIPOS>MOLECULE
acetonitrile
     6     5     1     0     0
SMALL
NO_CHARGES
****
Generated from the CSD

@<TRIPOS>ATOM
     1 C1      -0.9779   0.0001   0.0000   C.1       1 RES1   0.0000
     2 C2       0.4924   0.0000   0.0000   C.3       1 RES1   0.0000
     3 N3      -2.1360   0.0000  -0.0002   N.1       1 RES1   0.0000
     4 H4       0.8741   1.0458  -0.0002   H         1 RES1   0.0000
     5 H5       0.8735  -0.5227   0.9059   H         1 RES1   0.0000
     6 H6       0.8738  -0.5232  -0.9056   H         1 RES1   0.0000
@<TRIPOS>BOND
     1     1     2    1
     2     1     3    3
     3     2     4    1
     4     2     5    1
     5     2     6    1
@<TRIPOS>SUBSTRUCTURE
     1 RES1        1 GROUP             0 ****  ****    0  
