@<TRIPOS>MOLECULE
acetone
    10     9     1     0     0
SMALL
NO_CHARGES
****
Generated from the CSD

@<TRIPOS>ATOM
     1 C1       0.7931  -1.0524   0.0001   C.3       1 RES1   0.0000
     2 C2      -0.5275  -0.3046   0.0000   C.2       1 RES1   0.0000
     3 O3      -1.5761  -0.9100   0.0000   O.2       1 RES1   0.0000
     4 C4      -0.5148   1.2131  -0.0001   C.3       1 RES1   0.0000
     5 H5       1.6670  -0.3646  -0.0001   H         1 RES1   0.0000
     6 H6       0.8609  -1.6982   0.9049   H         1 RES1   0.0000
     7 H7       0.8608  -1.6986  -0.9043   H         1 RES1   0.0000
     8 H8       0.5177   1.6259   0.0001   H         1 RES1   0.0000
     9 H9      -1.0402   1.5946  -0.9049   H         1 RES1   0.0000
    10 H10     -1.0406   1.5948   0.9043   H         1 RES1   0.0000
@<TRIPOS>BOND
     1     1     2    1
     2     1     5    1
     3     1     6    1
     4     1     7    1
     5     2     3    2
     6     2     4    1
     7     4     8    1
     8     4     9    1
     9     4    10    1
@<TRIPOS>SUBSTRUCTURE
     1 RES1        1 GROUP             0 ****  ****    0  
