@<TRIPOS>MOLECULE
benzene
    12    12     1     0     0
SMALL
NO_CHARGES
****
Generated from the CSD

@<TRIPOS>ATOM
     1 C1       0.1811   1.3365  -0.3557   C.ar      1 RES1   0.0000
     2 C2       1.2883   0.5171  -0.1360   C.ar      1 RES1   0.0000
     3 C3      -1.2883  -0.5171   0.1360   C.ar      1 RES1   0.0000
     4 C4       1.1072  -0.8194   0.2197   C.ar      1 RES1   0.0000
     5 C5      -1.1072   0.8194  -0.2197   C.ar      1 RES1   0.0000
     6 C6      -0.1811  -1.3365   0.3557   C.ar      1 RES1   0.0000
     7 H7       0.3239   2.3905  -0.6363   H         1 RES1   0.0000
     8 H8       2.3043   0.9250  -0.2432   H         1 RES1   0.0000
     9 H9      -2.3042  -0.9249   0.2434   H         1 RES1   0.0000
    10 H10      1.9803  -1.4656   0.3929   H         1 RES1   0.0000
    11 H11     -1.9803   1.4656  -0.3930   H         1 RES1   0.0000
    12 H12     -0.3239  -2.3905   0.6362   H         1 RES1   0.0000
@<TRIPOS>BOND
     1     1     2   ar
     2     1     5   ar
     3     1     7    1
     4     2     4   ar
     5     2     8    1
     6     3     5   ar
     7     3     6   ar
     8     3     9    1
     9     4     6   ar
    10     4    10    1
    11     5    11    1
    12     6    12    1
@<TRIPOS>SUBSTRUCTURE
     1 RES1        1 GROUP             0 ****  ****    0  
