@<TRIPOS>MOLECULE
butylacetate
    20    19     1     0     0
SMALL
NO_CHARGES
****
Generated from the CSD

@<TRIPOS>ATOM
     1 C1       3.2513  -0.9017  -0.0204   C.3       1 RES1   0.0000
     2 C2       2.0187   0.0108   0.0310   C.3       1 RES1   0.0000
     3 C3       0.7096  -0.7916  -0.0388   C.3       1 RES1   0.0000
     4 C4      -0.5200   0.1176   0.0089   C.3       1 RES1   0.0000
     5 O5      -1.6703  -0.6822  -0.0583   O.3       1 RES1   0.0000
     6 C6      -2.9241  -0.1420  -0.0462   C.2       1 RES1   0.0000
     7 C7      -2.9958   1.3743   0.0423   C.3       1 RES1   0.0000
     8 O8      -3.9257  -0.8248  -0.1026   O.2       1 RES1   0.0000
     9 H9       3.2762  -1.4902  -0.9659   H         1 RES1   0.0000
    10 H10      3.2558  -1.6194   0.8317   H         1 RES1   0.0000
    11 H11      4.1919  -0.3064   0.0330   H         1 RES1   0.0000
    12 H12      2.0608   0.7326  -0.8195   H         1 RES1   0.0000
    13 H13      2.0420   0.6067   0.9747   H         1 RES1   0.0000
    14 H14      0.6717  -1.5123   0.8129   H         1 RES1   0.0000
    15 H15      0.6924  -1.3896  -0.9814   H         1 RES1   0.0000
    16 H16     -0.4950   0.8121  -0.8616   H         1 RES1   0.0000
    17 H17     -0.5169   0.6882   0.9657   H         1 RES1   0.0000
    18 H18     -4.0587   1.7067   0.0525   H         1 RES1   0.0000
    19 H19     -2.5240   1.8589  -0.8409   H         1 RES1   0.0000
    20 H20     -2.5399   1.7531   0.9836   H         1 RES1   0.0000
@<TRIPOS>BOND
     1     1     2    1
     2     1     9    1
     3     1    10    1
     4     1    11    1
     5     2     3    1
     6     2    12    1
     7     2    13    1
     8     3     4    1
     9     3    14    1
    10     3    15    1
    11     4     5    1
    12     4    16    1
    13     4    17    1
    14     5     6    1
    15     6     7    1
    16     6     8    2
    17     7    18    1
    18     7    19    1
    19     7    20    1
@<TRIPOS>SUBSTRUCTURE
     1 RES1        1 GROUP             0 ****  ****    0  
