@<TRIPOS>MOLECULE
carbon_tetrachloride
     5     4     1     0     0
SMALL
NO_CHARGES
****
Generated from the CSD

@<TRIPOS>ATOM
     1 C1       0.0000   0.0000   0.0000   C.3       1 RES1   0.0000
     2 Cl2     -1.7394   0.0004  -0.0003   Cl        1 RES1   0.0000
     3 Cl3      0.5802   1.6398  -0.0003   Cl        1 RES1   0.0000
     4 Cl4      0.5794  -0.8198   1.4205   Cl        1 RES1   0.0000
     5 Cl5      0.5798  -0.8204  -1.4199   Cl        1 RES1   0.0000
@<TRIPOS>BOND
     1     1     2    1
     2     1     3    1
     3     1     4    1
     4     1     5    1
@<TRIPOS>SUBSTRUCTURE
     1 RES1        1 GROUP             0 ****  ****    0  
