@<TRIPOS>MOLECULE
chloroform
     5     4     1     0     0
SMALL
NO_CHARGES
****
Generated from the CSD

@<TRIPOS>ATOM
     1 C1       0.0716  -0.0330  -0.1115   C.3       1 RES1   0.0000
     2 Cl2     -1.4829  -0.9305  -0.1115   Cl        1 RES1   0.0000
     3 Cl3     -0.2555   1.7319  -0.1115   Cl        1 RES1   0.0000
     4 Cl4      1.0117  -0.4664   1.3549   Cl        1 RES1   0.0000
     5 H5       0.6551  -0.3020  -1.0203   H         1 RES1   0.0000
@<TRIPOS>BOND
     1     1     2    1
     2     1     3    1
     3     1     4    1
     4     1     5    1
@<TRIPOS>SUBSTRUCTURE
     1 RES1        1 GROUP             0 ****  ****    0  
