@<TRIPOS>MOLECULE
chlorobenzene
    12    12     1     0     0
SMALL
NO_CHARGES
****
Generated from the CSD

@<TRIPOS>ATOM
     1 C1       0.8170   1.0306  -0.2734   C.ar      1 RES1   0.0000
     2 C2       1.3517  -0.2140   0.0591   C.ar      1 RES1   0.0000
     3 C3       0.5033  -1.2842   0.3429   C.ar      1 RES1   0.0000
     4 C4      -0.8797  -1.1097   0.2943   C.ar      1 RES1   0.0000
     5 C5      -1.4144   0.1349  -0.0381   C.ar      1 RES1   0.0000
     6 C6      -0.5660   1.2051  -0.3220   C.ar      1 RES1   0.0000
     7 Cl7      1.8625   2.3495  -0.6233   Cl        1 RES1   0.0000
     8 H8       2.4424  -0.3516   0.0975   H         1 RES1   0.0000
     9 H9       0.9249  -2.2658   0.6051   H         1 RES1   0.0000
    10 H10     -1.5487  -1.9537   0.5182   H         1 RES1   0.0000
    11 H11     -2.5051   0.2725  -0.0763   H         1 RES1   0.0000
    12 H12     -0.9877   2.1866  -0.5842   H         1 RES1   0.0000
@<TRIPOS>BOND
     1     1     2   ar
     2     1     6   ar
     3     1     7    1
     4     2     3   ar
     5     2     8    1
     6     3     4   ar
     7     3     9    1
     8     4     5   ar
     9     4    10    1
    10     5     6   ar
    11     5    11    1
    12     6    12    1
@<TRIPOS>SUBSTRUCTURE
     1 RES1        1 GROUP             0 ****  ****    0  
