@<TRIPOS>MOLECULE
cumene
    21    21     1     0     0
SMALL
NO_CHARGES
****
Generated from the CSD

@<TRIPOS>ATOM
     1 C1      -0.2494  -0.0546  -0.1551   C.ar      1 RES1   0.0000
     2 C2       0.0667  -0.9776   0.7721   C.ar      1 RES1   0.0000
     3 C3      -0.7087  -2.0540   0.9759   C.ar      1 RES1   0.0000
     4 C4      -1.8228  -2.2262   0.2494   C.ar      1 RES1   0.0000
     5 C5      -2.1528  -1.3159  -0.6786   C.ar      1 RES1   0.0000
     6 C6      -1.3711  -0.2427  -0.8753   C.ar      1 RES1   0.0000
     7 C7       0.6297   1.1650  -0.3848   C.3       1 RES1   0.0000
     8 C8       0.6905   2.0507   0.8706   C.3       1 RES1   0.0000
     9 C9       2.0377   0.7589  -0.8503   C.3       1 RES1   0.0000
    10 H10      0.9761  -0.8606   1.3834   H         1 RES1   0.0000
    11 H11     -0.4308  -2.7982   1.7411   H         1 RES1   0.0000
    12 H12     -2.4625  -3.1091   0.4140   H         1 RES1   0.0000
    13 H13     -3.0678  -1.4508  -1.2797   H         1 RES1   0.0000
    14 H14     -1.6657   0.4903  -1.6444   H         1 RES1   0.0000
    15 H15      0.1854   1.7887  -1.2015   H         1 RES1   0.0000
    16 H16     -0.3314   2.3570   1.1926   H         1 RES1   0.0000
    17 H17      1.2733   2.9801   0.6762   H         1 RES1   0.0000
    18 H18      1.1760   1.5298   1.7260   H         1 RES1   0.0000
    19 H19      1.9882   0.1289  -1.7681   H         1 RES1   0.0000
    20 H20      2.6526   1.6560  -1.0924   H         1 RES1   0.0000
    21 H21      2.5865   0.1844  -0.0711   H         1 RES1   0.0000
@<TRIPOS>BOND
     1     1     2   ar
     2     1     6   ar
     3     1     7    1
     4     2     3   ar
     5     2    10    1
     6     3     4   ar
     7     3    11    1
     8     4     5   ar
     9     4    12    1
    10     5     6   ar
    11     5    13    1
    12     6    14    1
    13     7     8    1
    14     7     9    1
    15     7    15    1
    16     8    16    1
    17     8    17    1
    18     8    18    1
    19     9    19    1
    20     9    20    1
    21     9    21    1
@<TRIPOS>SUBSTRUCTURE
     1 RES1        1 GROUP             0 ****  ****    0  
