@<TRIPOS>MOLECULE
cyclohexane
    18    18     1     0     0
SMALL
NO_CHARGES
****
Generated from the CSD

@<TRIPOS>ATOM
     1 C1       0.3009  -0.2863  -1.4201   C.3       1 RES1   0.0000
     2 C2       0.9431  -1.1025  -0.2892   C.3       1 RES1   0.0000
     3 C3       1.0675  -0.2627   0.9903   C.3       1 RES1   0.0000
     4 C4      -0.3007   0.2864   1.4199   C.3       1 RES1   0.0000
     5 C5      -1.0672   0.2629  -0.9903   C.3       1 RES1   0.0000
     6 H6       0.1864  -0.9222  -2.3304   H         1 RES1   0.0000
     7 H7       0.9725   0.5619  -1.6942   H         1 RES1   0.0000
     8 C8      -0.9430   1.1029   0.2891   C.3       1 RES1   0.0000
     9 H9       0.3197  -2.0048  -0.0821   H         1 RES1   0.0000
    10 H10      1.9504  -1.4646  -0.6060   H         1 RES1   0.0000
    11 H11      1.5033  -0.8818   1.8107   H         1 RES1   0.0000
    12 H12      1.7692   0.5864   0.8110   H         1 RES1   0.0000
    13 H13     -0.9723  -0.5621   1.6932   H         1 RES1   0.0000
    14 H14     -0.1867   0.9219   2.3306   H         1 RES1   0.0000
    15 H15     -1.7685  -0.5865  -0.8104   H         1 RES1   0.0000
    16 H16     -1.9506   1.4642   0.6060   H         1 RES1   0.0000
    17 H17     -0.3202   2.0056   0.0823   H         1 RES1   0.0000
    18 H18     -1.5037   0.8814  -1.8106   H         1 RES1   0.0000
@<TRIPOS>BOND
     1     1     2    1
     2     1     5    1
     3     1     6    1
     4     1     7    1
     5     2     3    1
     6     2     9    1
     7     2    10    1
     8     3     4    1
     9     3    11    1
    10     3    12    1
    11     4     8    1
    12     4    13    1
    13     4    14    1
    14     5     8    1
    15     5    15    1
    16     5    18    1
    17     8    16    1
    18     8    17    1
@<TRIPOS>SUBSTRUCTURE
     1 RES1        1 GROUP             0 ****  ****    0  
