@<TRIPOS>MOLECULE
DCM
     5     4     1     0     0
SMALL
NO_CHARGES
****
Generated from the CSD

@<TRIPOS>ATOM
     1 C1       0.1386  -0.0639   0.0000   C.3       1 RES1   0.0000
     2 Cl2     -1.3901  -0.9461  -0.0002   Cl        1 RES1   0.0000
     3 Cl3     -0.1833   1.6715  -0.0002   Cl        1 RES1   0.0000
     4 H4       0.7172  -0.3306   0.9005   H         1 RES1   0.0000
     5 H5       0.7176  -0.3308  -0.9001   H         1 RES1   0.0000
@<TRIPOS>BOND
     1     1     2    1
     2     1     3    1
     3     1     4    1
     4     1     5    1
@<TRIPOS>SUBSTRUCTURE
     1 RES1        1 GROUP             0 ****  ****    0  
