@<TRIPOS>MOLECULE
diethylether
    15    14     1     0     0
SMALL
NO_CHARGES
****
Generated from the CSD

@<TRIPOS>ATOM
     1 O1      -0.1723   0.2476  -0.0494   O.3       1 RES1   0.0000
     2 C2      -0.2886  -0.9438  -0.7877   C.3       1 RES1   0.0000
     3 C3      -1.3677  -0.7569  -1.8505   C.3       1 RES1   0.0000
     4 C4       0.8098   0.1679   0.9543   C.3       1 RES1   0.0000
     5 C5       0.8649   1.5031   1.6913   C.3       1 RES1   0.0000
     6 H6      -0.5698  -1.7795  -0.1055   H         1 RES1   0.0000
     7 H7       0.6856  -1.1773  -1.2766   H         1 RES1   0.0000
     8 H8      -1.4940  -1.6809  -2.4607   H         1 RES1   0.0000
     9 H9      -1.1057   0.0755  -2.5437   H         1 RES1   0.0000
    10 H10     -2.3518  -0.5190  -1.3848   H         1 RES1   0.0000
    11 H11      1.8005  -0.0485   0.4915   H         1 RES1   0.0000
    12 H12      0.5486  -0.6480   1.6678   H         1 RES1   0.0000
    13 H13      1.6327   1.4839   2.4990   H         1 RES1   0.0000
    14 H14     -0.1172   1.7426   2.1605   H         1 RES1   0.0000
    15 H15      1.1244   2.3335   0.9948   H         1 RES1   0.0000
@<TRIPOS>BOND
     1     1     2    1
     2     1     4    1
     3     2     3    1
     4     2     6    1
     5     2     7    1
     6     3     8    1
     7     3     9    1
     8     3    10    1
     9     4     5    1
    10     4    11    1
    11     4    12    1
    12     5    13    1
    13     5    14    1
    14     5    15    1
@<TRIPOS>SUBSTRUCTURE
     1 RES1        1 GROUP             0 ****  ****    0  
