@<TRIPOS>MOLECULE
diisopropylamine
    22    21     1     0     0
SMALL
NO_CHARGES
****
Generated from the CSD

@<TRIPOS>ATOM
     1 C        0.8970  -0.9121  -0.3784   C.3       1 ****   0.0000
     2 C       -0.0137  -1.3451  -1.5376   C.3       1 ****   0.0000
     3 C        1.4506  -2.1716   0.3166   C.3       1 ****   0.0000
     4 N        0.2060  -0.1240   0.6496   N.3       1 ****   0.0000
     5 C       -0.1036   1.2814   0.3594   C.3       1 ****   0.0000
     6 C       -0.4384   1.9555   1.7045   C.3       1 ****   0.0000
     7 C       -1.2916   1.4654  -0.5973   C.3       1 ****   0.0000
     8 H        1.7656  -0.3301  -0.7736   H         1 ****   0.0000
     9 H        0.4517  -2.1671  -2.1275   H         1 ****   0.0000
    10 H       -0.1913  -0.5270  -2.2667   H         1 ****   0.0000
    11 H       -0.9964  -1.7131  -1.1648   H         1 ****   0.0000
    12 H        2.0503  -2.7958  -0.3846   H         1 ****   0.0000
    13 H        2.1180  -1.9014   1.1672   H         1 ****   0.0000
    14 H        0.6261  -2.8031   0.7199   H         1 ****   0.0000
    15 H       -0.6889  -0.6157   0.8975   H         1 ****   0.0000
    16 H        0.8029   1.7844  -0.0586   H         1 ****   0.0000
    17 H       -0.6218   3.0473   1.5806   H         1 ****   0.0000
    18 H        0.4001   1.8444   2.4301   H         1 ****   0.0000
    19 H       -1.3471   1.5042   2.1647   H         1 ****   0.0000
    20 H       -1.6793   2.5087  -0.5592   H         1 ****   0.0000
    21 H       -1.0121   1.2964  -1.6584   H         1 ****   0.0000
    22 H       -2.1325   0.7842  -0.3346   H         1 ****   0.0000
@<TRIPOS>BOND
     1     1     2    1
     2     1     3    1
     3     1     4    1
     4     1     8    1
     5     2     9    1
     6     2    10    1
     7     2    11    1
     8     3    12    1
     9     3    13    1
    10     3    14    1
    11     4     5    1
    12     4    15    1
    13     5     6    1
    14     5     7    1
    15     5    16    1
    16     6    17    1
    17     6    18    1
    18     6    19    1
    19     7    20    1
    20     7    21    1
    21     7    22    1
@<TRIPOS>SUBSTRUCTURE
     1 ****        1 GROUP             0 ****  ****    0  
