@<TRIPOS>MOLECULE
DMF
    12    11     1     0     0
SMALL
NO_CHARGES
****
Generated from the CSD

@<TRIPOS>ATOM
     1 C1      -0.0122   1.5696   0.0000   C.2       1 RES1   0.0000
     2 O2      -1.0310   2.2162  -0.0001   O.2       1 RES1   0.0000
     3 N3      -0.0011   0.2002   0.0000   N.am      1 RES1   0.0000
     4 C4       1.2317  -0.5793   0.0001   C.3       1 RES1   0.0000
     5 C5      -1.2218  -0.5975  -0.0001   C.3       1 RES1   0.0000
     6 H6       0.9948   2.0383   0.0001   H         1 RES1   0.0000
     7 H7       2.1389   0.0648  -0.0001   H         1 RES1   0.0000
     8 H8       1.2806  -1.2246   0.9061   H         1 RES1   0.0000
     9 H9       1.2805  -1.2251  -0.9055   H         1 RES1   0.0000
    10 H10     -2.1417   0.0273   0.0001   H         1 RES1   0.0000
    11 H11     -1.2595  -1.2447  -0.9054   H         1 RES1   0.0000
    12 H12     -1.2594  -1.2451   0.9048   H         1 RES1   0.0000
@<TRIPOS>BOND
     1     1     2    2
     2     1     3   am
     3     1     6    1
     4     3     4    1
     5     3     5    1
     6     4     7    1
     7     4     8    1
     8     4     9    1
     9     5    10    1
    10     5    11    1
    11     5    12    1
@<TRIPOS>SUBSTRUCTURE
     1 RES1        1 GROUP             0 ****  ****    0  
