@<TRIPOS>MOLECULE
DMSO
    10     9     1     0     0
SMALL
NO_CHARGES
****
Generated from the CSD

@<TRIPOS>ATOM
     1 S1       0.0005   0.7944  -0.0013   S.o       1 RES1   0.0000
     2 O2      -0.0017   2.2440   0.0007   O.2       1 RES1   0.0000
     3 C3      -1.4432  -0.2173  -0.0001   C.3       1 RES1   0.0000
     4 C4       1.4451  -0.2154   0.0002   C.3       1 RES1   0.0000
     5 H5      -1.1696  -1.2959   0.0001   H         1 RES1   0.0000
     6 H6      -2.0549  -0.0045  -0.9049   H         1 RES1   0.0000
     7 H7      -2.0549  -0.0040   0.9046   H         1 RES1   0.0000
     8 H8       2.3577   0.4216   0.0000   H         1 RES1   0.0000
     9 H9       1.4605  -0.8611   0.9062   H         1 RES1   0.0000
    10 H10      1.4608  -0.8617  -0.9055   H         1 RES1   0.0000
@<TRIPOS>BOND
     1     1     2    2
     2     1     3    1
     3     1     4    1
     4     3     5    1
     5     3     6    1
     6     3     7    1
     7     4     8    1
     8     4     9    1
     9     4    10    1
@<TRIPOS>SUBSTRUCTURE
     1 RES1        1 GROUP             0 ****  ****    0  
