@<TRIPOS>MOLECULE
ethanol
     9     8     1     0     0
SMALL
NO_CHARGES
****
Generated from the CSD

@<TRIPOS>ATOM
     1 C1      -0.1977   0.5012   0.0448   C.3       1 RES1   0.0000
     2 C2       0.6480  -0.7342   0.3241   C.3       1 RES1   0.0000
     3 O3      -1.0827   0.2333  -1.0240   O.3       1 RES1   0.0000
     4 H4      -0.8142   0.7824   0.9283   H         1 RES1   0.0000
     5 H5       0.4336   1.3689  -0.2523   H         1 RES1   0.0000
     6 H6       1.3518  -0.5523   1.1685   H         1 RES1   0.0000
     7 H7       1.2519  -1.0149  -0.5693   H         1 RES1   0.0000
     8 H8       0.0076  -1.6049   0.5947   H         1 RES1   0.0000
     9 H9      -1.5982   1.0208  -1.2144   H         1 RES1   0.0000
@<TRIPOS>BOND
     1     1     2    1
     2     1     3    1
     3     1     4    1
     4     1     5    1
     5     2     6    1
     6     2     7    1
     7     2     8    1
     8     3     9    1
@<TRIPOS>SUBSTRUCTURE
     1 RES1        1 GROUP             0 ****  ****    0  
