@<TRIPOS>MOLECULE
ethyleneglycol
    10     9     1     0     0
SMALL
NO_CHARGES
****
Generated from the CSD

@<TRIPOS>ATOM
     1 C1       0.5916   0.2527  -0.3994   C.3       1 RES1   0.0000
     2 C2      -0.5916  -0.2527   0.3994   C.3       1 RES1   0.0000
     3 O3       1.7604   0.1614   0.3894   O.3       1 RES1   0.0000
     4 O4      -1.7604  -0.1614  -0.3894   O.3       1 RES1   0.0000
     5 H5       2.5115   0.4775  -0.1182   H         1 RES1   0.0000
     6 H6      -2.5115  -0.4775   0.1182   H         1 RES1   0.0000
     7 H7       0.7568  -0.3574  -1.3155   H         1 RES1   0.0000
     8 H8       0.4641   1.3200  -0.6878   H         1 RES1   0.0000
     9 H9      -0.7568   0.3574   1.3155   H         1 RES1   0.0000
    10 H10     -0.4641  -1.3200   0.6878   H         1 RES1   0.0000
@<TRIPOS>BOND
     1     1     2    1
     2     1     3    1
     3     1     7    1
     4     1     8    1
     5     2     4    1
     6     2     9    1
     7     2    10    1
     8     3     5    1
     9     4     6    1
@<TRIPOS>SUBSTRUCTURE
     1 RES1        1 GROUP             0 ****  ****    0  
