@<TRIPOS>MOLECULE
ethyl_formate
    11    10     1     0     0
SMALL
NO_CHARGES
****
Generated from the CSD

@<TRIPOS>ATOM
     1 C1      -1.9851   0.0807   0.0000   C.2       1 RES1   0.0000
     2 O2      -3.0313  -0.5233   0.0000   O.2       1 RES1   0.0000
     3 O3      -0.8264  -0.5883   0.0000   O.3       1 RES1   0.0000
     4 C4       0.2460   0.3147   0.0000   C.3       1 RES1   0.0000
     5 C5       1.5596  -0.4560   0.0000   C.3       1 RES1   0.0000
     6 H6      -1.9851   1.1937   0.0000   H         1 RES1   0.0000
     7 H7       0.1918   0.9543   0.9093   H         1 RES1   0.0000
     8 H8       0.1917   0.9550  -0.9088   H         1 RES1   0.0000
     9 H9       2.4110   0.2610   0.0000   H         1 RES1   0.0000
    10 H10      1.6139  -1.0955  -0.9093   H         1 RES1   0.0000
    11 H11      1.6140  -1.0962   0.9088   H         1 RES1   0.0000
@<TRIPOS>BOND
     1     1     2    2
     2     1     3    1
     3     1     6    1
     4     3     4    1
     5     4     5    1
     6     4     7    1
     7     4     8    1
     8     5     9    1
     9     5    10    1
    10     5    11    1
@<TRIPOS>SUBSTRUCTURE
     1 RES1        1 GROUP             0 ****  ****    0  
