@<TRIPOS>MOLECULE
ethylacetate
    14    13     1     0     0
SMALL
NO_CHARGES
****
Generated from the CSD

@<TRIPOS>ATOM
     1 C1      -0.1326  -1.3449  -0.0011   C.2       1 RES1   0.0000
     2 C2      -1.5102  -1.9760   0.0009   C.3       1 RES1   0.0000
     3 O3       0.9074  -1.9639  -0.0117   O.2       1 RES1   0.0000
     4 O4      -0.2320   0.0120   0.0079   O.3       1 RES1   0.0000
     5 C5       0.9770   0.7248   0.0015   C.3       1 RES1   0.0000
     6 C6       0.6718   2.2199   0.0005   C.3       1 RES1   0.0000
     7 H7      -1.4295  -3.0865   0.0001   H         1 RES1   0.0000
     8 H8      -2.0778  -1.6721   0.9094   H         1 RES1   0.0000
     9 H9      -2.0796  -1.6708  -0.9061   H         1 RES1   0.0000
    10 H10      1.5579   0.4581  -0.9126   H         1 RES1   0.0000
    11 H11      1.5659   0.4598   0.9109   H         1 RES1   0.0000
    12 H12      1.6123   2.8182  -0.0034   H         1 RES1   0.0000
    13 H13      0.0874   2.5119   0.9034   H         1 RES1   0.0000
    14 H14      0.0815   2.5090  -0.8995   H         1 RES1   0.0000
@<TRIPOS>BOND
     1     1     2    1
     2     1     3    2
     3     1     4    1
     4     2     7    1
     5     2     8    1
     6     2     9    1
     7     4     5    1
     8     5     6    1
     9     5    10    1
    10     5    11    1
    11     6    12    1
    12     6    13    1
    13     6    14    1
@<TRIPOS>SUBSTRUCTURE
     1 RES1        1 GROUP             0 ****  ****    0  
