@<TRIPOS>MOLECULE
formamide
     6     5     1     0     0
SMALL
NO_CHARGES
****
Generated from the CSD

@<TRIPOS>ATOM
     1 C1       0.5645   0.3417   0.0000   C.2       1 RES1   0.0000
     2 O2       1.6107  -0.2623   0.0000   O.2       1 RES1   0.0000
     3 N3      -0.6211  -0.3427   0.0000   N.am      1 RES1   0.0000
     4 H4       0.5645   1.4547   0.0000   H         1 RES1   0.0000
     5 H5      -1.4975   0.1633   0.0000   H         1 RES1   0.0000
     6 H6      -0.6211  -1.3547   0.0000   H         1 RES1   0.0000
@<TRIPOS>BOND
     1     1     2    2
     2     1     3   am
     3     1     4    1
     4     3     5    1
     5     3     6    1
@<TRIPOS>SUBSTRUCTURE
     1 RES1        1 GROUP             0 ****  ****    0  
