@<TRIPOS>MOLECULE
formic_acid
     5     4     1     0     0
SMALL
NO_CHARGES
****
Generated from the CSD

@<TRIPOS>ATOM
     1 C1      -0.1219   0.4150   0.0784   C.2       1 RES1   0.0000
     2 O2      -0.0201   1.4373   0.7161   O.2       1 RES1   0.0000
     3 O3       0.5980  -0.7009   0.3063   O.3       1 RES1   0.0000
     4 H4      -0.8118   0.2459  -0.7757   H         1 RES1   0.0000
     5 H5       0.3557  -1.3974  -0.3251   H         1 RES1   0.0000
@<TRIPOS>BOND
     1     1     2    2
     2     1     3    1
     3     1     4    1
     4     3     5    1
@<TRIPOS>SUBSTRUCTURE
     1 RES1        1 GROUP             0 ****  ****    0  
