@<TRIPOS>MOLECULE
heptane
    23    22     1     0     0
SMALL
NO_CHARGES
****
Generated from the CSD

@<TRIPOS>ATOM
     1 C1      -3.8189  -0.3306  -0.0399   C.3       1 RES1   0.0000
     2 C2      -2.5483   0.5239   0.0599   C.3       1 RES1   0.0000
     3 C3      -1.2748  -0.3306  -0.0416   C.3       1 RES1   0.0000
     4 C4       0.0006   0.5219   0.0602   C.3       1 RES1   0.0000
     5 C5       1.2741  -0.3336  -0.0404   C.3       1 RES1   0.0000
     6 C6       2.5495   0.5179   0.0633   C.3       1 RES1   0.0000
     7 C7       3.8183  -0.3395  -0.0361   C.3       1 RES1   0.0000
     8 H8      -3.8612  -1.0849   0.7788   H         1 RES1   0.0000
     9 H9      -3.8622  -0.8745  -1.0111   H         1 RES1   0.0000
    10 H10     -4.7332   0.3022   0.0352   H         1 RES1   0.0000
    11 H11     -2.5525   1.0753   1.0306   H         1 RES1   0.0000
    12 H12     -2.5534   1.2859  -0.7559   H         1 RES1   0.0000
    13 H13     -1.2761  -0.8804  -1.0128   H         1 RES1   0.0000
    14 H14     -1.2764  -1.0929   0.7735   H         1 RES1   0.0000
    15 H15      0.0008   1.0716   1.0314   H         1 RES1   0.0000
    16 H16      0.0019   1.2838  -0.7551   H         1 RES1   0.0000
    17 H17      1.2754  -0.8828  -1.0119   H         1 RES1   0.0000
    18 H18      1.2729  -1.0963   0.7743   H         1 RES1   0.0000
    19 H19      2.5539   1.0683   1.0346   H         1 RES1   0.0000
    20 H20      2.5573   1.2808  -0.7517   H         1 RES1   0.0000
    21 H21      3.8614  -0.8822  -1.0080   H         1 RES1   0.0000
    22 H22      3.8578  -1.0950   0.7817   H         1 RES1   0.0000
    23 H23      4.7339   0.2911   0.0409   H         1 RES1   0.0000
@<TRIPOS>BOND
     1     1     2    1
     2     1     8    1
     3     1     9    1
     4     1    10    1
     5     2     3    1
     6     2    11    1
     7     2    12    1
     8     3     4    1
     9     3    13    1
    10     3    14    1
    11     4     5    1
    12     4    15    1
    13     4    16    1
    14     5     6    1
    15     5    17    1
    16     5    18    1
    17     6     7    1
    18     6    19    1
    19     6    20    1
    20     7    21    1
    21     7    22    1
    22     7    23    1
@<TRIPOS>SUBSTRUCTURE
     1 RES1        1 GROUP             0 ****  ****    0  
