@<TRIPOS>MOLECULE
hexane
    20    19     1     0     0
SMALL
NO_CHARGES
****
Generated from the CSD

@<TRIPOS>ATOM
     1 C1      -1.7009  -2.6397   0.0000   C.3       1 RES1   0.0000
     2 C2      -0.3819  -1.8782   0.0000   C.3       1 RES1   0.0000
     3 C3      -0.6595  -0.3807   0.0000   C.3       1 RES1   0.0000
     4 C4       0.6595   0.3807   0.0000   C.3       1 RES1   0.0000
     5 C5       0.3819   1.8782   0.0000   C.3       1 RES1   0.0000
     6 C6       1.7009   2.6397   0.0000   C.3       1 RES1   0.0000
     7 H7      -1.4981  -3.7341   0.0000   H         1 RES1   0.0000
     8 H8      -2.2838  -2.3710   0.9093   H         1 RES1   0.0000
     9 H9      -2.2844  -2.3707  -0.9088   H         1 RES1   0.0000
    10 H10      0.2010  -2.1470  -0.9093   H         1 RES1   0.0000
    11 H11      0.2016  -2.1472   0.9088   H         1 RES1   0.0000
    12 H12     -1.2424  -0.1120   0.9093   H         1 RES1   0.0000
    13 H13     -1.2430  -0.1118  -0.9088   H         1 RES1   0.0000
    14 H14      1.2424   0.1120  -0.9093   H         1 RES1   0.0000
    15 H15      1.2430   0.1118   0.9088   H         1 RES1   0.0000
    16 H16     -0.2010   2.1470   0.9093   H         1 RES1   0.0000
    17 H17     -0.2016   2.1472  -0.9088   H         1 RES1   0.0000
    18 H18      1.4981   3.7341   0.0000   H         1 RES1   0.0000
    19 H19      2.2838   2.3710  -0.9093   H         1 RES1   0.0000
    20 H20      2.2844   2.3707   0.9088   H         1 RES1   0.0000
@<TRIPOS>BOND
     1     1     2    1
     2     1     7    1
     3     1     8    1
     4     1     9    1
     5     2     3    1
     6     2    10    1
     7     2    11    1
     8     3     4    1
     9     3    12    1
    10     3    13    1
    11     4     5    1
    12     4    14    1
    13     4    15    1
    14     5     6    1
    15     5    16    1
    16     5    17    1
    17     6    18    1
    18     6    19    1
    19     6    20    1
@<TRIPOS>SUBSTRUCTURE
     1 RES1        1 GROUP             0 ****  ****    0  
