@<TRIPOS>MOLECULE
isobutyl_acetate
    20    19     1     0     0
SMALL
NO_CHARGES
****
Generated from the CSD

@<TRIPOS>ATOM
     1 C1      -0.2915  -1.9596  -0.9214   C.2       1 RES1   0.0000
     2 C2      -0.7208  -3.3639  -0.5739   C.3       1 RES1   0.0000
     3 O3       0.2014  -1.7281  -1.9997   O.2       1 RES1   0.0000
     4 O4      -0.4568  -0.9709  -0.0352   O.3       1 RES1   0.0000
     5 C5       0.0113   0.2359  -0.5739   C.3       1 RES1   0.0000
     6 C6      -0.1812   1.3544   0.4417   C.3       1 RES1   0.0000
     7 C7       0.5975   1.0294   1.7096   C.3       1 RES1   0.0000
     8 C8       0.3285   2.6645  -0.1444   C.3       1 RES1   0.0000
     9 H9      -1.8127  -3.3754  -0.3586   H         1 RES1   0.0000
    10 H10     -0.5045  -4.0412  -1.4302   H         1 RES1   0.0000
    11 H11     -0.1612  -3.7110   0.3235   H         1 RES1   0.0000
    12 H12      0.4569   1.8468   2.4518   H         1 RES1   0.0000
    13 H13      0.2250   0.0720   2.1379   H         1 RES1   0.0000
    14 H14      1.6791   0.9319   1.4659   H         1 RES1   0.0000
    15 H15      0.1884   3.4826   0.5971   H         1 RES1   0.0000
    16 H16     -0.5587   0.4741  -1.4997   H         1 RES1   0.0000
    17 H17      1.0928   0.1384  -0.8176   H         1 RES1   0.0000
    18 H18     -1.2627   1.4520   0.6855   H         1 RES1   0.0000
    19 H19     -0.2409   2.9024  -1.0706   H         1 RES1   0.0000
    20 H20      1.4101   2.5659  -0.3878   H         1 RES1   0.0000
@<TRIPOS>BOND
     1     1     2    1
     2     1     3    2
     3     1     4    1
     4     2     9    1
     5     2    10    1
     6     2    11    1
     7     4     5    1
     8     5     6    1
     9     5    16    1
    10     5    17    1
    11     6     7    1
    12     6     8    1
    13     6    18    1
    14     7    12    1
    15     7    13    1
    16     7    14    1
    17     8    15    1
    18     8    19    1
    19     8    20    1
@<TRIPOS>SUBSTRUCTURE
     1 RES1        1 GROUP             0 ****  ****    0  
