@<TRIPOS>MOLECULE
isooctane
    26    25     1     0     0
SMALL
NO_CHARGES
****
Generated from the CSD

@<TRIPOS>ATOM
     1 C1      -2.1734  -3.4227   0.1914   C.3       1 RES1   0.0000
     2 C2      -0.8545  -2.6612   0.1914   C.3       1 RES1   0.0000
     3 C3      -1.1320  -1.1637   0.1914   C.3       1 RES1   0.0000
     4 C4       0.1869  -0.4022   0.1914   C.3       1 RES1   0.0000
     5 C5      -0.0906   1.0953   0.1914   C.3       1 RES1   0.0000
     6 C6       1.2283   1.8568   0.1914   C.3       1 RES1   0.0000
     7 C7       2.0275   1.4893  -1.0519   C.3       1 RES1   0.0000
     8 C8       0.9493   3.3540   0.1905   C.3       1 RES1   0.0000
     9 H9      -1.9706  -4.5171   0.1914   H         1 RES1   0.0000
    10 H10     -2.7564  -3.1540   1.1006   H         1 RES1   0.0000
    11 H11     -2.7569  -3.1537  -0.7174   H         1 RES1   0.0000
    12 H12     -0.2716  -2.9300  -0.7179   H         1 RES1   0.0000
    13 H13     -0.2710  -2.9302   1.1002   H         1 RES1   0.0000
    14 H14     -1.7150  -0.8950   1.1006   H         1 RES1   0.0000
    15 H15     -1.7155  -0.8947  -0.7174   H         1 RES1   0.0000
    16 H16      0.7698  -0.6710  -0.7179   H         1 RES1   0.0000
    17 H17      0.7704  -0.6712   1.1002   H         1 RES1   0.0000
    18 H18     -0.6735   1.3640   1.1006   H         1 RES1   0.0000
    19 H19     -0.6741   1.3643  -0.7174   H         1 RES1   0.0000
    20 H20      1.8118   1.5878   1.1002   H         1 RES1   0.0000
    21 H21      2.9914   2.0458  -1.0519   H         1 RES1   0.0000
    22 H22      2.2315   0.3952  -1.0513   H         1 RES1   0.0000
    23 H23      1.4440   1.7583  -1.9607   H         1 RES1   0.0000
    24 H24      1.9126   3.9115   0.1905   H         1 RES1   0.0000
    25 H25      0.3658   3.6226   1.0994   H         1 RES1   0.0000
    26 H26      0.3658   3.6219  -0.7187   H         1 RES1   0.0000
@<TRIPOS>BOND
     1     1     2    1
     2     1     9    1
     3     1    10    1
     4     1    11    1
     5     2     3    1
     6     2    12    1
     7     2    13    1
     8     3     4    1
     9     3    14    1
    10     3    15    1
    11     4     5    1
    12     4    16    1
    13     4    17    1
    14     5     6    1
    15     5    18    1
    16     5    19    1
    17     6     7    1
    18     6     8    1
    19     6    20    1
    20     7    21    1
    21     7    22    1
    22     7    23    1
    23     8    24    1
    24     8    25    1
    25     8    26    1
@<TRIPOS>SUBSTRUCTURE
     1 RES1        1 GROUP             0 ****  ****    0  
