@<TRIPOS>MOLECULE
isopropanol
    12    11     1     0     0
SMALL
NO_CHARGES
****
Generated from the CSD

@<TRIPOS>ATOM
     1 C1      -0.3714  -0.2428   0.1086   C.3       1 RES1   0.0000
     2 C2       0.9361  -1.0285   0.1289   C.3       1 RES1   0.0000
     3 C3      -0.1338   1.2639   0.1095   C.3       1 RES1   0.0000
     4 O4      -1.1007  -0.5917  -1.0450   O.3       1 RES1   0.0000
     5 H5      -0.9997  -0.5271   0.9856   H         1 RES1   0.0000
     6 H6       0.7452  -2.1262   0.1321   H         1 RES1   0.0000
     7 H7       1.5323  -0.7864   1.0383   H         1 RES1   0.0000
     8 H8       1.5607  -0.7932  -0.7629   H         1 RES1   0.0000
     9 H9      -1.0983   1.8213   0.1034   H         1 RES1   0.0000
    10 H10      0.4323   1.5773   1.0160   H         1 RES1   0.0000
    11 H11      0.4493   1.5809  -0.7849   H         1 RES1   0.0000
    12 H12     -1.9521  -0.1475  -1.0296   H         1 RES1   0.0000
@<TRIPOS>BOND
     1     1     2    1
     2     1     3    1
     3     1     4    1
     4     1     5    1
     5     2     6    1
     6     2     7    1
     7     2     8    1
     8     3     9    1
     9     3    10    1
    10     3    11    1
    11     4    12    1
@<TRIPOS>SUBSTRUCTURE
     1 RES1        1 GROUP             0 ****  ****    0  
