@<TRIPOS>MOLECULE
isopropylacetate
    17    16     1     0     0
SMALL
NO_CHARGES
****
Generated from the CSD

@<TRIPOS>ATOM
     1 C1      -2.6689  -0.7659   0.2167   C.3       1 RES1   0.0000
     2 C2      -1.5180   0.0015  -0.4061   C.2       1 RES1   0.0000
     3 O3      -0.3358  -0.4653   0.0860   O.3       1 RES1   0.0000
     4 C4       0.8544   0.1258  -0.3506   C.3       1 RES1   0.0000
     5 C5       1.0737   1.4688   0.3483   C.3       1 RES1   0.0000
     6 C6       2.0030  -0.8380  -0.0459   C.3       1 RES1   0.0000
     7 O7      -1.6494   0.8916  -1.2157   O.2       1 RES1   0.0000
     8 H8      -2.5838  -1.8515  -0.0164   H         1 RES1   0.0000
     9 H9      -3.6448  -0.4040  -0.1785   H         1 RES1   0.0000
    10 H10     -2.6726  -0.6292   1.3219   H         1 RES1   0.0000
    11 H11      0.8158   0.2679  -1.4579   H         1 RES1   0.0000
    12 H12      1.1144   1.3440   1.4544   H         1 RES1   0.0000
    13 H13      0.2635   2.1973   0.1212   H         1 RES1   0.0000
    14 H14      2.0326   1.9334   0.0234   H         1 RES1   0.0000
    15 H15      2.9785  -0.4242  -0.3895   H         1 RES1   0.0000
    16 H16      1.8548  -1.8164  -0.5583   H         1 RES1   0.0000
    17 H17      2.0818  -1.0363   1.0475   H         1 RES1   0.0000
@<TRIPOS>BOND
     1     1     2    1
     2     1     8    1
     3     1     9    1
     4     1    10    1
     5     2     3    1
     6     2     7    2
     7     3     4    1
     8     4     5    1
     9     4     6    1
    10     4    11    1
    11     5    12    1
    12     5    13    1
    13     5    14    1
    14     6    15    1
    15     6    16    1
    16     6    17    1
@<TRIPOS>SUBSTRUCTURE
     1 RES1        1 GROUP             0 ****  ****    0  
