@<TRIPOS>MOLECULE
isopropylether
    21    20     1     0     0
SMALL
NO_CHARGES
****
Generated from the CSD

@<TRIPOS>ATOM
     1 O1      -0.3208  -0.6703   1.0541   O.3       1 RES1   0.0000
     2 C2       0.9566  -0.8427   0.4958   C.3       1 RES1   0.0000
     3 C3      -1.7911  -0.1882  -0.8798   C.3       1 RES1   0.0000
     4 C4       1.8784   0.3709   0.5925   C.3       1 RES1   0.0000
     5 C5      -0.8926   1.6936   0.5850   C.3       1 RES1   0.0000
     6 C6       0.9823  -1.5067  -0.8791   C.3       1 RES1   0.0000
     7 C7      -1.2577   0.2137   0.4935   C.3       1 RES1   0.0000
     8 H8       1.4176  -1.6028   1.1850   H         1 RES1   0.0000
     9 H9      -1.9759  -1.2839  -0.9509   H         1 RES1   0.0000
    10 H10     -2.7623   0.3187  -1.0855   H         1 RES1   0.0000
    11 H11     -1.1152   0.1259  -1.7030   H         1 RES1   0.0000
    12 H12      1.7019   1.1007  -0.2257   H         1 RES1   0.0000
    13 H13      1.7859   0.8872   1.5747   H         1 RES1   0.0000
    14 H14      2.9441   0.0616   0.4874   H         1 RES1   0.0000
    15 H15     -0.4328   1.9494   1.5664   H         1 RES1   0.0000
    16 H16     -1.8027   2.3280   0.4778   H         1 RES1   0.0000
    17 H17     -0.2140   2.0117  -0.2344   H         1 RES1   0.0000
    18 H18      1.9874  -1.9429  -1.0837   H         1 RES1   0.0000
    19 H19      0.8034  -0.7813  -1.7007   H         1 RES1   0.0000
    20 H20      0.2464  -2.3390  -0.9537   H         1 RES1   0.0000
    21 H21     -2.1384   0.0970   1.1835   H         1 RES1   0.0000
@<TRIPOS>BOND
     1     1     2    1
     2     1     7    1
     3     2     4    1
     4     2     6    1
     5     2     8    1
     6     3     7    1
     7     3     9    1
     8     3    10    1
     9     3    11    1
    10     4    12    1
    11     4    13    1
    12     4    14    1
    13     5     7    1
    14     5    15    1
    15     5    16    1
    16     5    17    1
    17     6    18    1
    18     6    19    1
    19     6    20    1
    20     7    21    1
@<TRIPOS>SUBSTRUCTURE
     1 RES1        1 GROUP             0 ****  ****    0  
