@<TRIPOS>MOLECULE
meta-xylene
    18    18     1     0     0
SMALL
NO_CHARGES
****
Generated from the CSD

@<TRIPOS>ATOM
     1 C1       2.2218   1.4044  -0.3710   C.3       1 RES1   0.0000
     2 C2       0.8391   0.8495  -0.2251   C.ar      1 RES1   0.0000
     3 C3      -1.7374  -0.1846   0.0467   C.ar      1 RES1   0.0000
     4 C4       0.6580  -0.4870   0.1307   C.ar      1 RES1   0.0000
     5 C5      -1.5563   1.1518  -0.3090   C.ar      1 RES1   0.0000
     6 C6      -0.6303  -1.0040   0.2666   C.ar      1 RES1   0.0000
     7 C7      -0.2680   1.6689  -0.4449   C.ar      1 RES1   0.0000
     8 C8      -0.8248  -2.4384   0.6483   C.3       1 RES1   0.0000
     9 H9       2.9671   0.6059  -0.1572   H         1 RES1   0.0000
    10 H10      2.3643   1.7754  -1.4106   H         1 RES1   0.0000
    11 H11      2.3620   2.2441   0.3460   H         1 RES1   0.0000
    12 H12     -2.7534  -0.5924   0.1539   H         1 RES1   0.0000
    13 H13      1.5312  -1.1331   0.3042   H         1 RES1   0.0000
    14 H14     -2.4295   1.7981  -0.4824   H         1 RES1   0.0000
    15 H15     -0.1251   2.7229  -0.7255   H         1 RES1   0.0000
    16 H16      0.1672  -2.9257   0.7796   H         1 RES1   0.0000
    17 H17     -1.3939  -2.4937   1.6032   H         1 RES1   0.0000
    18 H18     -1.3919  -2.9620  -0.1535   H         1 RES1   0.0000
@<TRIPOS>BOND
     1     1     2    1
     2     1     9    1
     3     1    10    1
     4     1    11    1
     5     2     4   ar
     6     2     7   ar
     7     3     5   ar
     8     3     6   ar
     9     3    12    1
    10     4     6   ar
    11     4    13    1
    12     5     7   ar
    13     5    14    1
    14     6     8    1
    15     7    15    1
    16     8    16    1
    17     8    17    1
    18     8    18    1
@<TRIPOS>SUBSTRUCTURE
     1 RES1        1 GROUP             0 ****  ****    0  
