@<TRIPOS>MOLECULE
methoxybenzene
    16    16     1     0     0
SMALL
NO_CHARGES
****
Generated from the CSD

@<TRIPOS>ATOM
     1 C1       0.8358   2.4910  -0.5673   C.3       1 RES1   0.0000
     2 O2       1.3805   1.2204  -0.2955   O.3       1 RES1   0.0000
     3 C3       0.5253   0.1725  -0.0491   C.ar      1 RES1   0.0000
     4 C4       1.0522  -1.0387   0.2218   C.ar      1 RES1   0.0000
     5 C5       0.2957  -2.1173   0.4752   C.ar      1 RES1   0.0000
     6 C6      -1.0402  -2.0111   0.4648   C.ar      1 RES1   0.0000
     7 C7      -1.5960  -0.8206   0.1995   C.ar      1 RES1   0.0000
     8 C8      -0.8219   0.2475  -0.0516   C.ar      1 RES1   0.0000
     9 H9       1.6819   3.1953  -0.7325   H         1 RES1   0.0000
    10 H10      0.2245   2.4595  -1.4967   H         1 RES1   0.0000
    11 H11      0.2474   2.8546   0.3046   H         1 RES1   0.0000
    12 H12      2.1503  -1.1494   0.2362   H         1 RES1   0.0000
    13 H13      0.7700  -3.0892   0.6920   H         1 RES1   0.0000
    14 H14     -1.6725  -2.8903   0.6717   H         1 RES1   0.0000
    15 H15     -2.6948  -0.7218   0.1887   H         1 RES1   0.0000
    16 H16     -1.3387   1.1971  -0.2621   H         1 RES1   0.0000
@<TRIPOS>BOND
     1     1     2    1
     2     1     9    1
     3     1    10    1
     4     1    11    1
     5     2     3    1
     6     3     4   ar
     7     3     8   ar
     8     4     5   ar
     9     4    12    1
    10     5     6   ar
    11     5    13    1
    12     6     7   ar
    13     6    14    1
    14     7     8   ar
    15     7    15    1
    16     8    16    1
@<TRIPOS>SUBSTRUCTURE
     1 RES1        1 GROUP             0 ****  ****    0  
