@<TRIPOS>MOLECULE
methylethylketone
    13    12     1     0     0
SMALL
NO_CHARGES
****
Generated from the CSD

@<TRIPOS>ATOM
     1 O1       0.6911   1.6446   0.0936   O.2       1 RES1   0.0000
     2 C2       0.6877   0.4362   0.0295   C.2       1 RES1   0.0000
     3 C3       1.9825  -0.3578  -0.0062   C.3       1 RES1   0.0000
     4 C4      -0.5936  -0.3843  -0.0202   C.3       1 RES1   0.0000
     5 C5      -1.8818   0.4478   0.0078   C.3       1 RES1   0.0000
     6 H6       2.0433  -0.9463  -0.9493   H         1 RES1   0.0000
     7 H7       2.0268  -1.0560   0.8597   H         1 RES1   0.0000
     8 H8       2.8710   0.3114   0.0426   H         1 RES1   0.0000
     9 H9      -0.5877  -1.0822   0.8503   H         1 RES1   0.0000
    10 H10     -0.5725  -0.9975  -0.9521   H         1 RES1   0.0000
    11 H11     -2.7805  -0.2101  -0.0307   H         1 RES1   0.0000
    12 H12     -1.9351   1.1394  -0.8642   H         1 RES1   0.0000
    13 H13     -1.9507   1.0552   0.9393   H         1 RES1   0.0000
@<TRIPOS>BOND
     1     1     2    2
     2     2     3    1
     3     2     4    1
     4     3     6    1
     5     3     7    1
     6     3     8    1
     7     4     5    1
     8     4     9    1
     9     4    10    1
    10     5    11    1
    11     5    12    1
    12     5    13    1
@<TRIPOS>SUBSTRUCTURE
     1 RES1        1 GROUP             0 ****  ****    0  
