@<TRIPOS>MOLECULE
methylisopropylketone
    16    15     1     0     0
SMALL
NO_CHARGES
****
Generated from the CSD

@<TRIPOS>ATOM
     1 C1       0.2409  -0.4751   0.9812   C.2       1 RES1   0.0000
     2 O2       0.0137  -1.6035   1.3555   O.2       1 RES1   0.0000
     3 C3      -0.4806   0.1541  -0.2101   C.3       1 RES1   0.0000
     4 C4      -1.6385  -0.7132  -0.7333   C.3       1 RES1   0.0000
     5 C5       0.4999   0.4690  -1.3510   C.3       1 RES1   0.0000
     6 C6       1.2643   0.3867   1.7030   C.3       1 RES1   0.0000
     7 H7      -0.9196   1.1131   0.1629   H         1 RES1   0.0000
     8 H8      -2.3768  -0.9332   0.0716   H         1 RES1   0.0000
     9 H9      -2.1900  -0.1958  -1.5514   H         1 RES1   0.0000
    10 H10     -1.2684  -1.6821  -1.1393   H         1 RES1   0.0000
    11 H11      1.2842   1.1935  -1.0360   H         1 RES1   0.0000
    12 H12     -0.0275   0.9223  -2.2211   H         1 RES1   0.0000
    13 H13      1.0086  -0.4568  -1.7043   H         1 RES1   0.0000
    14 H14      1.5379  -0.0541   2.6882   H         1 RES1   0.0000
    15 H15      2.1934   0.4690   1.0961   H         1 RES1   0.0000
    16 H16      0.8581   1.4063   1.8879   H         1 RES1   0.0000
@<TRIPOS>BOND
     1     1     2    2
     2     1     3    1
     3     1     6    1
     4     3     4    1
     5     3     5    1
     6     3     7    1
     7     4     8    1
     8     4     9    1
     9     4    10    1
    10     5    11    1
    11     5    12    1
    12     5    13    1
    13     6    14    1
    14     6    15    1
    15     6    16    1
@<TRIPOS>SUBSTRUCTURE
     1 RES1        1 GROUP             0 ****  ****    0  
