@<TRIPOS>MOLECULE
methylcyclohexane
    21    21     1     0     0
SMALL
NO_CHARGES
****
Generated from the CSD

@<TRIPOS>ATOM
     1 C1      -0.6344  -0.8007   0.0701   C.3       1 RES1   0.0000
     2 C2       0.6741  -0.6849   0.8712   C.3       1 RES1   0.0000
     3 C3       0.0331   1.2473  -1.2717   C.3       1 RES1   0.0000
     4 C4       1.7810  -0.0229   0.0377   C.3       1 RES1   0.0000
     5 C5      -1.0724   0.5843  -0.4371   C.3       1 RES1   0.0000
     6 C6       1.3359   1.3567  -0.4673   C.3       1 RES1   0.0000
     7 C7      -1.7410  -1.4532   0.9143   C.3       1 RES1   0.0000
     8 H8      -0.4459  -1.4562  -0.8175   H         1 RES1   0.0000
     9 H9       0.4948  -0.0811   1.7921   H         1 RES1   0.0000
    10 H10      1.0093  -1.6970   1.2012   H         1 RES1   0.0000
    11 H11     -0.2959   2.2619  -1.6011   H         1 RES1   0.0000
    12 H12      0.2147   0.6457  -2.1940   H         1 RES1   0.0000
    13 H13      2.7091   0.0782   0.6499   H         1 RES1   0.0000
    14 H14      2.0317  -0.6748  -0.8328   H         1 RES1   0.0000
    15 H15     -1.3204   1.2379   0.4324   H         1 RES1   0.0000
    16 H16     -1.9988   0.4890  -1.0522   H         1 RES1   0.0000
    17 H17      1.1804   2.0390   0.4021   H         1 RES1   0.0000
    18 H18      2.1376   1.8074  -1.1001   H         1 RES1   0.0000
    19 H19     -1.4386  -2.4686   1.2583   H         1 RES1   0.0000
    20 H20     -1.9730  -0.8431   1.8165   H         1 RES1   0.0000
    21 H21     -2.6813  -1.5649   0.3278   H         1 RES1   0.0000
@<TRIPOS>BOND
     1     1     2    1
     2     1     5    1
     3     1     7    1
     4     1     8    1
     5     2     4    1
     6     2     9    1
     7     2    10    1
     8     3     5    1
     9     3     6    1
    10     3    11    1
    11     3    12    1
    12     4     6    1
    13     4    13    1
    14     4    14    1
    15     5    15    1
    16     5    16    1
    17     6    17    1
    18     6    18    1
    19     7    19    1
    20     7    20    1
    21     7    21    1
@<TRIPOS>SUBSTRUCTURE
     1 RES1        1 GROUP             0 ****  ****    0  
