@<TRIPOS>MOLECULE
methylisobutylketone
    19    18     1     0     0
SMALL
NO_CHARGES
****
Generated from the CSD

@<TRIPOS>ATOM
     1 C1      -1.1290   1.4828  -0.4195   C.3       1 RES1   0.0000
     2 C2      -0.9654   0.2317   0.4608   C.3       1 RES1   0.0000
     3 C3      -2.2263  -0.6454   0.3578   C.3       1 RES1   0.0000
     4 C4       0.2834  -0.5793   0.0654   C.3       1 RES1   0.0000
     5 C5       1.6234   0.1012   0.3112   C.2       1 RES1   0.0000
     6 O6       1.7484   1.0829   1.0074   O.2       1 RES1   0.0000
     7 C7       2.8227  -0.5412  -0.3654   C.3       1 RES1   0.0000
     8 H8      -2.0263   2.0701  -0.1183   H         1 RES1   0.0000
     9 H9      -1.2490   1.2063  -1.4914   H         1 RES1   0.0000
    10 H10     -0.2521   2.1635  -0.3440   H         1 RES1   0.0000
    11 H11     -0.8653   0.5531   1.5283   H         1 RES1   0.0000
    12 H12     -2.1544  -1.5381   1.0202   H         1 RES1   0.0000
    13 H13     -2.3816  -1.0063  -0.6842   H         1 RES1   0.0000
    14 H14     -3.1370  -0.0805   0.6619   H         1 RES1   0.0000
    15 H15      0.2150  -0.8465  -1.0147   H         1 RES1   0.0000
    16 H16      0.3069  -1.5319   0.6458   H         1 RES1   0.0000
    17 H17      2.7122  -0.4837  -1.4718   H         1 RES1   0.0000
    18 H18      2.9041  -1.6098  -0.0640   H         1 RES1   0.0000
    19 H19      3.7705  -0.0289  -0.0851   H         1 RES1   0.0000
@<TRIPOS>BOND
     1     1     2    1
     2     1     8    1
     3     1     9    1
     4     1    10    1
     5     2     3    1
     6     2     4    1
     7     2    11    1
     8     3    12    1
     9     3    13    1
    10     3    14    1
    11     4     5    1
    12     4    15    1
    13     4    16    1
    14     5     6    2
    15     5     7    1
    16     7    17    1
    17     7    18    1
    18     7    19    1
@<TRIPOS>SUBSTRUCTURE
     1 RES1        1 GROUP             0 ****  ****    0  
