@<TRIPOS>MOLECULE
methanol
     6     5     1     0     0
SMALL
NO_CHARGES
****
Generated from the CSD

@<TRIPOS>ATOM
     1 C1      -0.0088  -0.3351  -0.1821   C.3       1 RES1   0.0000
     2 O2      -0.3748   1.0087   0.0878   O.3       1 RES1   0.0000
     3 H3      -0.6251  -0.7079  -1.0291   H         1 RES1   0.0000
     4 H4       1.0711  -0.3585  -0.4449   H         1 RES1   0.0000
     5 H5      -0.1956  -0.9389   0.7324   H         1 RES1   0.0000
     6 H6       0.1332   1.3318   0.8361   H         1 RES1   0.0000
@<TRIPOS>BOND
     1     1     2    1
     2     1     3    1
     3     1     4    1
     4     1     5    1
     5     2     6    1
@<TRIPOS>SUBSTRUCTURE
     1 RES1        1 GROUP             0 ****  ****    0  
