@<TRIPOS>MOLECULE
methylacetate
    11    10     1     0     0
SMALL
NO_CHARGES
****
Generated from the CSD

@<TRIPOS>ATOM
     1 O1      -0.5222   1.5463   0.0823   O.2       1 RES1   0.0000
     2 C2      -0.5109   0.3372   0.0260   C.2       1 RES1   0.0000
     3 O3       0.6061  -0.4416  -0.0311   O.3       1 RES1   0.0000
     4 C4       1.8470   0.2242  -0.0247   C.3       1 RES1   0.0000
     5 C5      -1.7508  -0.5362   0.0083   C.3       1 RES1   0.0000
     6 H6       1.9305   0.8875  -0.9146   H         1 RES1   0.0000
     7 H7       2.6494  -0.5454  -0.0753   H         1 RES1   0.0000
     8 H8       1.9659   0.8038   0.9181   H         1 RES1   0.0000
     9 H9      -1.7519  -1.2275   0.8814   H         1 RES1   0.0000
    10 H10     -1.7910  -1.1341  -0.9304   H         1 RES1   0.0000
    11 H11     -2.6726   0.0861   0.0603   H         1 RES1   0.0000
@<TRIPOS>BOND
     1     1     2    2
     2     2     3    1
     3     2     5    1
     4     3     4    1
     5     4     6    1
     6     4     7    1
     7     4     8    1
     8     5     9    1
     9     5    10    1
    10     5    11    1
@<TRIPOS>SUBSTRUCTURE
     1 RES1        1 GROUP             0 ****  ****    0  
