@<TRIPOS>MOLECULE
methylbutylketone
    19    18     1     0     0
SMALL
NO_CHARGES
****
Generated from the CSD

@<TRIPOS>ATOM
     1 C1       0.7368  -2.0794   0.7045   C.2       1 RES1   0.0000
     2 O2       1.4749  -2.7916   1.3487   O.2       1 RES1   0.0000
     3 C3       0.8974  -0.5650   0.7694   C.3       1 RES1   0.0000
     4 C4      -0.0776   0.2679  -0.0763   C.3       1 RES1   0.0000
     5 C5       0.1825   1.7765   0.0713   C.3       1 RES1   0.0000
     6 C6      -0.7914   2.6089  -0.7735   C.3       1 RES1   0.0000
     7 C7      -0.3488  -2.6844  -0.1685   C.3       1 RES1   0.0000
     8 H8       0.7950  -0.2685   1.8405   H         1 RES1   0.0000
     9 H9       1.9427  -0.3309   0.4559   H         1 RES1   0.0000
    10 H10     -1.1266   0.0528   0.2370   H         1 RES1   0.0000
    11 H11      0.0249  -0.0097  -1.1521   H         1 RES1   0.0000
    12 H12      0.0817   2.0712   1.1434   H         1 RES1   0.0000
    13 H13      1.2290   2.0088  -0.2406   H         1 RES1   0.0000
    14 H14     -0.6975   2.3616  -1.8557   H         1 RES1   0.0000
    15 H15     -0.5912   3.6989  -0.6567   H         1 RES1   0.0000
    16 H16     -1.8470   2.4240  -0.4691   H         1 RES1   0.0000
    17 H17     -0.3389  -3.7962  -0.1102   H         1 RES1   0.0000
    18 H18     -1.3530  -2.3409   0.1656   H         1 RES1   0.0000
    19 H19     -0.1925  -2.4039  -1.2339   H         1 RES1   0.0000
@<TRIPOS>BOND
     1     1     2    2
     2     1     3    1
     3     1     7    1
     4     3     4    1
     5     3     8    1
     6     3     9    1
     7     4     5    1
     8     4    10    1
     9     4    11    1
    10     5     6    1
    11     5    12    1
    12     5    13    1
    13     6    14    1
    14     6    15    1
    15     6    16    1
    16     7    17    1
    17     7    18    1
    18     7    19    1
@<TRIPOS>SUBSTRUCTURE
     1 RES1        1 GROUP             0 ****  ****    0  
