@<TRIPOS>MOLECULE
morpholine
    15    15     1     0     0
SMALL
NO_CHARGES
****
Generated from the CSD

@<TRIPOS>ATOM
     1 O       -0.6350   1.2281   0.5902   O.3       1 ****   0.0000
     2 C       -1.1967   0.5922  -0.5306   C.3       1 ****   0.0000
     3 N        0.6800  -0.9804  -0.5847   N.3       1 ****   0.0000
     4 H        0.0690  -1.7852  -0.2964   H         1 ****   0.0000
     5 C       -0.1073  -0.0474  -1.3861   C.3       1 ****   0.0000
     6 H       -1.9405  -0.1650  -0.1911   H         1 ****   0.0000
     7 H       -1.7446   1.3664  -1.1165   H         1 ****   0.0000
     8 H        0.5580   0.7414  -1.8114   H         1 ****   0.0000
     9 H       -0.5641  -0.5964  -2.2429   H         1 ****   0.0000
    10 C        1.2055  -0.3284   0.6118   C.3       1 ****   0.0000
    11 H        1.9606   0.4411   0.3230   H         1 ****   0.0000
    12 C        0.0713   0.3208   1.3989   C.3       1 ****   0.0000
    13 H        1.7263  -1.0867   1.2426   H         1 ****   0.0000
    14 H        0.4785   0.8907   2.2663   H         1 ****   0.0000
    15 H       -0.6338  -0.4446   1.7974   H         1 ****   0.0000
@<TRIPOS>BOND
     1     1     2    1
     2     1    12    1
     3     2     5    1
     4     2     6    1
     5     2     7    1
     6     3     4    1
     7     3     5    1
     8     3    10    1
     9     5     8    1
    10     5     9    1
    11    10    11    1
    12    10    12    1
    13    10    13    1
    14    12    14    1
    15    12    15    1
@<TRIPOS>SUBSTRUCTURE
     1 ****        1 GROUP             0 ****  ****    0  
