@<TRIPOS>MOLECULE
N,N-dimethylacetamide
    15    14     1     0     0
SMALL
NO_CHARGES
****
Generated from the CSD

@<TRIPOS>ATOM
     1 C1      -0.6802   0.8138   0.0000   C.2       1 RES1   0.0000
     2 C2      -2.0031   0.0877   0.0000   C.3       1 RES1   0.0000
     3 O3      -0.6541   2.0215   0.0000   O.2       1 RES1   0.0000
     4 N4       0.4903   0.1038   0.0000   N.am      1 RES1   0.0000
     5 C5       1.7614   0.8014   0.0000   C.3       1 RES1   0.0000
     6 C6       0.4589  -1.3459   0.0000   C.3       1 RES1   0.0000
     7 H7      -2.8336   0.8287   0.0000   H         1 RES1   0.0000
     8 H8      -2.0756  -0.5501  -0.9092   H         1 RES1   0.0000
     9 H9      -2.0757  -0.5507   0.9088   H         1 RES1   0.0000
    10 H10      1.5823   1.8999   0.0000   H         1 RES1   0.0000
    11 H11      2.3384   0.5202   0.9093   H         1 RES1   0.0000
    12 H12      2.3389   0.5199  -0.9088   H         1 RES1   0.0000
    13 H13     -0.5981  -1.6946   0.0000   H         1 RES1   0.0000
    14 H14      0.9749  -1.7276  -0.9092   H         1 RES1   0.0000
    15 H15      0.9754  -1.7280   0.9088   H         1 RES1   0.0000
@<TRIPOS>BOND
     1     1     2    1
     2     1     3    2
     3     1     4   am
     4     2     7    1
     5     2     8    1
     6     2     9    1
     7     4     5    1
     8     4     6    1
     9     5    10    1
    10     5    11    1
    11     5    12    1
    12     6    13    1
    13     6    14    1
    14     6    15    1
@<TRIPOS>SUBSTRUCTURE
     1 RES1        1 GROUP             0 ****  ****    0  
