@<TRIPOS>MOLECULE
N-methylpyrrolidone
    16    16     1     0     0
SMALL
NO_CHARGES
****
Generated from the CSD

@<TRIPOS>ATOM
     1 N1      -0.4870  -0.1806   0.5756   N.am      1 RES1   0.0000
     2 C2      -0.9430  -0.4408  -0.7869   C.2       1 RES1   0.0000
     3 C3       1.3681   0.2629  -0.7890   C.3       1 RES1   0.0000
     4 C4       0.1144   0.2196  -1.6545   C.3       1 RES1   0.0000
     5 C5       0.9604  -0.3683   0.5312   C.3       1 RES1   0.0000
     6 C6      -1.2953   0.1847   1.7227   C.3       1 RES1   0.0000
     7 O7      -1.9299  -1.0407  -1.1411   O.2       1 RES1   0.0000
     8 H8       1.6987   1.3142  -0.6333   H         1 RES1   0.0000
     9 H9       2.2202  -0.2744  -1.2624   H         1 RES1   0.0000
    10 H10      0.2955  -0.3808  -2.5741   H         1 RES1   0.0000
    11 H11     -0.1958   1.2344  -1.9903   H         1 RES1   0.0000
    12 H12      1.2200  -1.4504   0.5496   H         1 RES1   0.0000
    13 H13      1.4801   0.0863   1.4041   H         1 RES1   0.0000
    14 H14     -2.3645   0.2454   1.4196   H         1 RES1   0.0000
    15 H15     -1.1789  -0.5851   2.5181   H         1 RES1   0.0000
    16 H16     -0.9631   1.1736   2.1107   H         1 RES1   0.0000
@<TRIPOS>BOND
     1     1     2   am
     2     1     5    1
     3     1     6    1
     4     2     4    1
     5     2     7    2
     6     3     4    1
     7     3     5    1
     8     3     8    1
     9     3     9    1
    10     4    10    1
    11     4    11    1
    12     5    12    1
    13     5    13    1
    14     6    14    1
    15     6    15    1
    16     6    16    1
@<TRIPOS>SUBSTRUCTURE
     1 RES1        1 GROUP             0 ****  ****    0  
