@<TRIPOS>MOLECULE
nitromethane
     7     6     1     0     0
SMALL
NO_CHARGES
****
Generated from the CSD

@<TRIPOS>ATOM
     1 C1      -0.5737  -0.3312  -0.0001   C.3       1 RES1   0.0000
     2 N2       0.7080   0.4088  -0.0001   N.pl3     1 RES1   0.0000
     3 O3       1.8425  -0.2462  -0.0001   O.2       1 RES1   0.0000
     4 O4       0.7080   1.7188  -0.0001   O.3       1 RES1   0.0000
     5 H5      -0.3709  -1.4256  -0.0001   H         1 RES1   0.0000
     6 H6      -1.1566  -0.0625   0.9092   H         1 RES1   0.0000
     7 H7      -1.1572  -0.0622  -0.9089   H         1 RES1   0.0000
@<TRIPOS>BOND
     1     1     2    1
     2     1     5    1
     3     1     6    1
     4     1     7    1
     5     2     3    2
     6     2     4    1
@<TRIPOS>SUBSTRUCTURE
     1 RES1        1 GROUP             0 ****  ****    0  
