@<TRIPOS>MOLECULE
ortho-xylene
    18    18     1     0     0
SMALL
NO_CHARGES
****
Generated from the CSD

@<TRIPOS>ATOM
     1 C1       1.6992   1.1946  -0.3158   C.3       1 RES1   0.0000
     2 C2       0.3165   0.6397  -0.1699   C.ar      1 RES1   0.0000
     3 C3      -2.2601  -0.3944   0.1019   C.ar      1 RES1   0.0000
     4 C4       0.1354  -0.6968   0.1857   C.ar      1 RES1   0.0000
     5 C5      -2.0790   0.9421  -0.2537   C.ar      1 RES1   0.0000
     6 C6      -1.1530  -1.2138   0.3215   C.ar      1 RES1   0.0000
     7 C7      -0.7906   1.4592  -0.3896   C.ar      1 RES1   0.0000
     8 C8       1.3236  -1.5762   0.4216   C.3       1 RES1   0.0000
     9 H9       2.4445   0.3961  -0.1022   H         1 RES1   0.0000
    10 H10      1.8416   1.5658  -1.3554   H         1 RES1   0.0000
    11 H11      1.8394   2.0342   0.4013   H         1 RES1   0.0000
    12 H12     -3.2761  -0.8022   0.2090   H         1 RES1   0.0000
    13 H13     -2.9521   1.5884  -0.4269   H         1 RES1   0.0000
    14 H14     -1.2959  -2.2679   0.6019   H         1 RES1   0.0000
    15 H15     -0.6477   2.5132  -0.6700   H         1 RES1   0.0000
    16 H16      2.2567  -0.9895   0.2667   H         1 RES1   0.0000
    17 H17      1.2976  -1.9621   1.4653   H         1 RES1   0.0000
    18 H18      1.3001  -2.4305  -0.2914   H         1 RES1   0.0000
@<TRIPOS>BOND
     1     1     2    1
     2     1     9    1
     3     1    10    1
     4     1    11    1
     5     2     4   ar
     6     2     7   ar
     7     3     5   ar
     8     3     6   ar
     9     3    12    1
    10     4     6   ar
    11     4     8    1
    12     5     7   ar
    13     5    13    1
    14     6    14    1
    15     7    15    1
    16     8    16    1
    17     8    17    1
    18     8    18    1
@<TRIPOS>SUBSTRUCTURE
     1 RES1        1 GROUP             0 ****  ****    0  
