@<TRIPOS>MOLECULE
para-xylene
    18    18     1     0     0
SMALL
NO_CHARGES
****
Generated from the CSD

@<TRIPOS>ATOM
     1 C1       1.7588   2.2187  -0.5886   C.3       1 RES1   0.0000
     2 C2       0.8483   1.0702  -0.2838   C.ar      1 RES1   0.0000
     3 C3       1.3830  -0.1744   0.0487   C.ar      1 RES1   0.0000
     4 C4       0.5346  -1.2446   0.3325   C.ar      1 RES1   0.0000
     5 C5      -0.8484  -1.0701   0.2839   C.ar      1 RES1   0.0000
     6 C6      -1.3831   0.1745  -0.0485   C.ar      1 RES1   0.0000
     7 C7      -0.5347   1.2447  -0.3324   C.ar      1 RES1   0.0000
     8 C8      -1.7589  -2.2187   0.5885   C.3       1 RES1   0.0000
     9 H9       2.8176   1.8875  -0.4987   H         1 RES1   0.0000
    10 H10      1.5694   2.5767  -1.6252   H         1 RES1   0.0000
    11 H11      1.5665   3.0455   0.1313   H         1 RES1   0.0000
    12 H12      2.4737  -0.3120   0.0871   H         1 RES1   0.0000
    13 H13      0.9563  -2.2262   0.5946   H         1 RES1   0.0000
    14 H14     -2.4738   0.3121  -0.0868   H         1 RES1   0.0000
    15 H15     -0.9563   2.2262  -0.5947   H         1 RES1   0.0000
    16 H16     -1.1520  -3.1200   0.8295   H         1 RES1   0.0000
    17 H17     -2.4016  -1.9610   1.4598   H         1 RES1   0.0000
    18 H18     -2.3996  -2.4290  -0.2970   H         1 RES1   0.0000
@<TRIPOS>BOND
     1     1     2    1
     2     1     9    1
     3     1    10    1
     4     1    11    1
     5     2     3   ar
     6     2     7   ar
     7     3     4   ar
     8     3    12    1
     9     4     5   ar
    10     4    13    1
    11     5     6   ar
    12     5     8    1
    13     6     7   ar
    14     6    14    1
    15     7    15    1
    16     8    16    1
    17     8    17    1
    18     8    18    1
@<TRIPOS>SUBSTRUCTURE
     1 RES1        1 GROUP             0 ****  ****    0  
