@<TRIPOS>MOLECULE
pentane
    17    16     1     0     0
SMALL
NO_CHARGES
****
Generated from the CSD

@<TRIPOS>ATOM
     1 C1      -1.3232  -2.1291   0.0000   C.3       1 RES1   0.0000
     2 C2      -0.0042  -1.3676   0.0000   C.3       1 RES1   0.0000
     3 C3      -0.2818   0.1299   0.0000   C.3       1 RES1   0.0000
     4 C4       1.0372   0.8914   0.0000   C.3       1 RES1   0.0000
     5 C5       0.7597   2.3889   0.0000   C.3       1 RES1   0.0000
     6 H6      -1.1203  -3.2235   0.0000   H         1 RES1   0.0000
     7 H7      -1.9061  -1.8604   0.9092   H         1 RES1   0.0000
     8 H8      -1.9067  -1.8601  -0.9088   H         1 RES1   0.0000
     9 H9       0.5787  -1.6363  -0.9093   H         1 RES1   0.0000
    10 H10      0.5793  -1.6366   0.9088   H         1 RES1   0.0000
    11 H11     -0.8647   0.3986   0.9092   H         1 RES1   0.0000
    12 H12     -0.8653   0.3989  -0.9088   H         1 RES1   0.0000
    13 H13      1.6201   0.6227  -0.9093   H         1 RES1   0.0000
    14 H14      1.6207   0.6224   0.9088   H         1 RES1   0.0000
    15 H15      1.7235   2.9454   0.0000   H         1 RES1   0.0000
    16 H16      0.1767   2.6576   0.9092   H         1 RES1   0.0000
    17 H17      0.1762   2.6579  -0.9088   H         1 RES1   0.0000
@<TRIPOS>BOND
     1     1     2    1
     2     1     6    1
     3     1     7    1
     4     1     8    1
     5     2     3    1
     6     2     9    1
     7     2    10    1
     8     3     4    1
     9     3    11    1
    10     3    12    1
    11     4     5    1
    12     4    13    1
    13     4    14    1
    14     5    15    1
    15     5    16    1
    16     5    17    1
@<TRIPOS>SUBSTRUCTURE
     1 RES1        1 GROUP             0 ****  ****    0  
