@<TRIPOS>MOLECULE
propylacetate
    17    16     1     0     0
SMALL
NO_CHARGES
****
Generated from the CSD

@<TRIPOS>ATOM
     1 C1       2.6550  -0.2751  -0.0062   C.3       1 RES1   0.0000
     2 C2       1.3277  -1.0449   0.0159   C.3       1 RES1   0.0000
     3 C3       0.1245  -0.1004   0.0052   C.3       1 RES1   0.0000
     4 O4      -1.0482  -0.8694   0.0276   O.3       1 RES1   0.0000
     5 C5      -2.2863  -0.2938   0.0184   C.2       1 RES1   0.0000
     6 C6      -2.3146   1.2260  -0.0192   C.3       1 RES1   0.0000
     7 O7      -3.3071  -0.9497   0.0386   O.2       1 RES1   0.0000
     8 H8       2.7376   0.3575  -0.9194   H         1 RES1   0.0000
     9 H9       3.5227  -0.9742   0.0014   H         1 RES1   0.0000
    10 H10      2.7484   0.3904   0.8823   H         1 RES1   0.0000
    11 H11      1.2907  -1.6886   0.9277   H         1 RES1   0.0000
    12 H12      1.2802  -1.7222  -0.8707   H         1 RES1   0.0000
    13 H13      0.1517   0.5151  -0.9228   H         1 RES1   0.0000
    14 H14      0.1626   0.5505   0.9085   H         1 RES1   0.0000
    15 H15     -3.3676   1.5887  -0.0190   H         1 RES1   0.0000
    16 H16     -1.8466   1.6218  -0.9475   H         1 RES1   0.0000
    17 H17     -1.8305   1.6682   0.8794   H         1 RES1   0.0000
@<TRIPOS>BOND
     1     1     2    1
     2     1     8    1
     3     1     9    1
     4     1    10    1
     5     2     3    1
     6     2    11    1
     7     2    12    1
     8     3     4    1
     9     3    13    1
    10     3    14    1
    11     4     5    1
    12     5     6    1
    13     5     7    2
    14     6    15    1
    15     6    16    1
    16     6    17    1
@<TRIPOS>SUBSTRUCTURE
     1 RES1        1 GROUP             0 ****  ****    0  
