@<TRIPOS>MOLECULE
pyridine
    11    11     1     0     0
SMALL
NO_CHARGES
****
Generated from the CSD

@<TRIPOS>ATOM
     1 C1      -0.1071  -1.4629   0.0761   C.ar      1 RES1   0.0000
     2 C2       1.0635  -0.7285  -0.0274   C.ar      1 RES1   0.0000
     3 C3       0.9674   0.6579  -0.0880   C.ar      1 RES1   0.0000
     4 C4      -0.2875   1.2562  -0.0432   C.ar      1 RES1   0.0000
     5 C5      -1.4007   0.4375   0.0610   C.ar      1 RES1   0.0000
     6 N6      -1.3391  -0.9106   0.1218   N.ar      1 RES1   0.0000
     7 H7      -0.0285  -2.5590   0.1238   H         1 RES1   0.0000
     8 H8       2.0427  -1.2286  -0.0607   H         1 RES1   0.0000
     9 H9       1.8745   1.2747  -0.1705   H         1 RES1   0.0000
    10 H10     -0.3934   2.3501  -0.0892   H         1 RES1   0.0000
    11 H11     -2.3920   0.9130   0.0963   H         1 RES1   0.0000
@<TRIPOS>BOND
     1     1     2   ar
     2     1     6   ar
     3     1     7    1
     4     2     3   ar
     5     2     8    1
     6     3     4   ar
     7     3     9    1
     8     4     5   ar
     9     4    10    1
    10     5     6   ar
    11     5    11    1
@<TRIPOS>SUBSTRUCTURE
     1 RES1        1 GROUP             0 ****  ****    0  
