@<TRIPOS>MOLECULE
sulfolane
    15    15     1     0     0
SMALL
NO_CHARGES
****
Generated from the CSD

@<TRIPOS>ATOM
     1 S1      -0.4740  -1.3976   0.1320   S.o2      1 RES1   0.0000
     2 O2      -0.4481  -2.3893  -0.9255   O.2       1 RES1   0.0000
     3 O3      -1.0531  -2.1544   1.2250   O.2       1 RES1   0.0000
     4 C4      -1.3120   0.1345  -0.3603   C.3       1 RES1   0.0000
     5 C5      -0.3664   1.2495   0.0526   C.3       1 RES1   0.0000
     6 C6       1.0416   0.7469  -0.2267   C.3       1 RES1   0.0000
     7 C7       1.1442  -0.6268   0.4138   C.3       1 RES1   0.0000
     8 H8      -2.2871   0.2335   0.1673   H         1 RES1   0.0000
     9 H9      -1.5353   0.1575  -1.4504   H         1 RES1   0.0000
    10 H10     -0.5718   2.1673  -0.5425   H         1 RES1   0.0000
    11 H11     -0.4954   1.5096   1.1271   H         1 RES1   0.0000
    12 H12      1.7915   1.4365   0.2214   H         1 RES1   0.0000
    13 H13      1.2417   0.6971  -1.3204   H         1 RES1   0.0000
    14 H14      1.3491  -0.5355   1.5040   H         1 RES1   0.0000
    15 H15      1.9751  -1.2287  -0.0176   H         1 RES1   0.0000
@<TRIPOS>BOND
     1     1     2    2
     2     1     3    2
     3     1     4    1
     4     1     7    1
     5     4     5    1
     6     4     8    1
     7     4     9    1
     8     5     6    1
     9     5    10    1
    10     5    11    1
    11     6     7    1
    12     6    12    1
    13     6    13    1
    14     7    14    1
    15     7    15    1
@<TRIPOS>SUBSTRUCTURE
     1 RES1        1 GROUP             0 ****  ****    0  
