@<TRIPOS>MOLECULE
t-butylmethylether
    18    17     1     0     0
SMALL
NO_CHARGES
****
Generated from the CSD

@<TRIPOS>ATOM
     1 O1      -0.7167  -0.5374  -0.9274   O.3       1 RES1   0.0000
     2 C2       0.2866   0.0491  -0.1455   C.3       1 RES1   0.0000
     3 C3      -0.1162   1.4443   0.3483   C.3       1 RES1   0.0000
     4 C4       1.5014   0.1955  -1.0783   C.3       1 RES1   0.0000
     5 C5       0.6864  -0.8510   1.0309   C.3       1 RES1   0.0000
     6 C6      -1.9588  -0.7482  -0.2922   C.3       1 RES1   0.0000
     7 H7      -0.8980   1.4078   1.1388   H         1 RES1   0.0000
     8 H8      -0.4940   2.0781  -0.4860   H         1 RES1   0.0000
     9 H9       0.7538   1.9714   0.8015   H         1 RES1   0.0000
    10 H10      1.2620   0.8388  -1.9556   H         1 RES1   0.0000
    11 H11      1.8320  -0.7937  -1.4699   H         1 RES1   0.0000
    12 H12      2.3712   0.6546  -0.5563   H         1 RES1   0.0000
    13 H13      0.8932  -1.8923   0.6943   H         1 RES1   0.0000
    14 H14     -0.0934  -0.8915   1.8228   H         1 RES1   0.0000
    15 H15      1.6080  -0.4701   1.5269   H         1 RES1   0.0000
    16 H16     -2.6336  -1.2357  -1.0313   H         1 RES1   0.0000
    17 H17     -2.4265   0.2142   0.0042   H         1 RES1   0.0000
    18 H18     -1.8579  -1.4343   0.5746   H         1 RES1   0.0000
@<TRIPOS>BOND
     1     1     2    1
     2     1     6    1
     3     2     3    1
     4     2     4    1
     5     2     5    1
     6     3     7    1
     7     3     8    1
     8     3     9    1
     9     4    10    1
    10     4    11    1
    11     4    12    1
    12     5    13    1
    13     5    14    1
    14     5    15    1
    15     6    16    1
    16     6    17    1
    17     6    18    1
@<TRIPOS>SUBSTRUCTURE
     1 RES1        1 GROUP             0 ****  ****    0  
