@<TRIPOS>MOLECULE
tetralin
    22    23     1     0     0
SMALL
NO_CHARGES
****
Generated from the CSD

@<TRIPOS>ATOM
     1 C1       1.1299   0.8144   1.0614   C.3       1 RES1   0.0000
     2 C2       0.2529   2.0579   0.9281   C.3       1 RES1   0.0000
     3 C3      -0.2559   2.1997  -0.5006   C.3       1 RES1   0.0000
     4 C4      -1.1331   1.0069  -0.8757   C.3       1 RES1   0.0000
     5 C5      -0.5215  -0.3223  -0.5058   C.ar      1 RES1   0.0000
     6 C6      -1.0427  -1.4941  -1.0747   C.ar      1 RES1   0.0000
     7 C7      -0.5229  -2.7424  -0.7331   C.ar      1 RES1   0.0000
     8 C8       0.5195  -2.8336   0.1844   C.ar      1 RES1   0.0000
     9 C9       1.0394  -1.6768   0.7647   C.ar      1 RES1   0.0000
    10 C10      0.5182  -0.4160   0.4374   C.ar      1 RES1   0.0000
    11 H11      1.2979   0.6152   2.1435   H         1 RES1   0.0000
    12 H12      2.0805   1.0211   0.5207   H         1 RES1   0.0000
    13 H13     -0.6154   1.9693   1.6188   H         1 RES1   0.0000
    14 H14      0.8582   2.9556   1.1861   H         1 RES1   0.0000
    15 H15     -0.8537   3.1347  -0.5852   H         1 RES1   0.0000
    16 H16      0.6158   2.2378  -1.1917   H         1 RES1   0.0000
    17 H17     -2.1081   1.1059  -0.3482   H         1 RES1   0.0000
    18 H18     -1.2519   1.0193  -1.9823   H         1 RES1   0.0000
    19 H19     -1.8695  -1.4276  -1.7972   H         1 RES1   0.0000
    20 H20     -0.9366  -3.6542  -1.1886   H         1 RES1   0.0000
    21 H21      0.9330  -3.8172   0.4517   H         1 RES1   0.0000
    22 H22      1.8662  -1.7538   1.4861   H         1 RES1   0.0000
@<TRIPOS>BOND
     1     1     2    1
     2     1    10    1
     3     1    11    1
     4     1    12    1
     5     2     3    1
     6     2    13    1
     7     2    14    1
     8     3     4    1
     9     3    15    1
    10     3    16    1
    11     4     5    1
    12     4    17    1
    13     4    18    1
    14     5     6   ar
    15     5    10   ar
    16     6     7   ar
    17     6    19    1
    18     7     8   ar
    19     7    20    1
    20     8     9   ar
    21     8    21    1
    22     9    10   ar
    23     9    22    1
@<TRIPOS>SUBSTRUCTURE
     1 RES1        1 GROUP             0 ****  ****    0  
