@<TRIPOS>MOLECULE
THF
    13    13     1     0     0
SMALL
NO_CHARGES
****
Generated from the CSD

@<TRIPOS>ATOM
     1 O1       0.7651   1.1413   0.4944   O.3       1 RES1   0.0000
     2 C2       1.2268  -0.1839   0.4476   C.3       1 RES1   0.0000
     3 C3       0.3121  -0.9048  -0.5385   C.3       1 RES1   0.0000
     4 C4      -0.9534  -0.0357  -0.5510   C.3       1 RES1   0.0000
     5 C5      -0.6358   1.0564   0.4651   C.3       1 RES1   0.0000
     6 H6       2.2964  -0.1925   0.1412   H         1 RES1   0.0000
     7 H7       1.1407  -0.6219   1.4698   H         1 RES1   0.0000
     8 H8       0.1051  -1.9510  -0.2158   H         1 RES1   0.0000
     9 H9       0.7755  -0.9345  -1.5532   H         1 RES1   0.0000
    10 H10     -1.1075   0.4110  -1.5620   H         1 RES1   0.0000
    11 H11     -1.8693  -0.6068  -0.2745   H         1 RES1   0.0000
    12 H12     -0.9934   0.7749   1.4833   H         1 RES1   0.0000
    13 H13     -1.0624   2.0475   0.1933   H         1 RES1   0.0000
@<TRIPOS>BOND
     1     1     2    1
     2     1     5    1
     3     2     3    1
     4     2     6    1
     5     2     7    1
     6     3     4    1
     7     3     8    1
     8     3     9    1
     9     4     5    1
    10     4    10    1
    11     4    11    1
    12     5    12    1
    13     5    13    1
@<TRIPOS>SUBSTRUCTURE
     1 RES1        1 GROUP             0 ****  ****    0  
