@<TRIPOS>MOLECULE
toluene
    15    15     1     0     0
SMALL
NO_CHARGES
****
Generated from the CSD

@<TRIPOS>ATOM
     1 C1       0.4677  -0.3904   0.3757   C.ar      1 RES1   0.0000
     2 C2      -1.3551   1.1311  -1.0886   C.ar      1 RES1   0.0000
     3 C3       0.4609   0.9989   0.4994   C.ar      1 RES1   0.0000
     4 C4      -0.4367  -1.0190  -0.4801   C.ar      1 RES1   0.0000
     5 C5      -0.4506   1.7597  -0.2328   C.ar      1 RES1   0.0000
     6 C6      -1.3481  -0.2581  -1.2123   C.ar      1 RES1   0.0000
     7 C7       1.4459  -1.2070   1.1615   C.3       1 RES1   0.0000
     8 H8      -2.0739   1.7311  -1.6660   H         1 RES1   0.0000
     9 H9       1.1742   1.4945   1.1742   H         1 RES1   0.0000
    10 H10     -0.4312  -2.1146  -0.5776   H         1 RES1   0.0000
    11 H11     -0.4562   2.8553  -0.1352   H         1 RES1   0.0000
    12 H12     -2.0614  -0.7538  -1.8873   H         1 RES1   0.0000
    13 H13      2.0784  -0.5333   1.7819   H         1 RES1   0.0000
    14 H14      0.8935  -1.9104   1.8239   H         1 RES1   0.0000
    15 H15      2.0927  -1.7840   0.4633   H         1 RES1   0.0000
@<TRIPOS>BOND
     1     1     3   ar
     2     1     4   ar
     3     1     7    1
     4     2     5   ar
     5     2     6   ar
     6     2     8    1
     7     3     5   ar
     8     3     9    1
     9     4     6   ar
    10     4    10    1
    11     5    11    1
    12     6    12    1
    13     7    13    1
    14     7    14    1
    15     7    15    1
@<TRIPOS>SUBSTRUCTURE
     1 RES1        1 GROUP             0 ****  ****    0  
