@<TRIPOS>MOLECULE
trichloroacetic_acid
     8     7     1     0     0
SMALL
NO_CHARGES
****
Generated from the CSD

@<TRIPOS>ATOM
     1 C1       0.6002   0.1968  -0.0001   C.2       1 RES1   0.0000
     2 C2      -0.7067  -0.5577  -0.0001   C.3       1 RES1   0.0000
     3 O3       1.6463  -0.4072  -0.0001   O.2       1 RES1   0.0000
     4 O4       0.6002   1.5348  -0.0001   O.3       1 RES1   0.0000
     5 Cl5     -0.3796  -2.3227  -0.0001   Cl        1 RES1   0.0000
     6 Cl6     -1.6468  -0.1243   1.4663   Cl        1 RES1   0.0000
     7 Cl7     -1.6477  -0.1239  -1.4658   Cl        1 RES1   0.0000
     8 H8       1.5340   1.8043  -0.0001   H         1 RES1   0.0000
@<TRIPOS>BOND
     1     1     2    1
     2     1     3    2
     3     1     4    1
     4     2     5    1
     5     2     6    1
     6     2     7    1
     7     4     8    1
@<TRIPOS>SUBSTRUCTURE
     1 RES1        1 GROUP             0 ****  ****    0  
