@<TRIPOS>MOLECULE
water
     3     2     1     0     0
SMALL
NO_CHARGES
****
Generated from the CSD

@<TRIPOS>ATOM
     1 O1      -0.2207  -0.2703   0.1560   O.3       1 RES1   0.0000
     2 H2       0.7723  -0.2703   0.1560   H         1 RES1   0.0000
     3 H3      -0.5517   0.5405  -0.3121   H         1 RES1   0.0000
@<TRIPOS>BOND
     1     1     2    1
     2     1     3    1
@<TRIPOS>SUBSTRUCTURE
     1 RES1        1 GROUP             0 ****  ****    0  
