@<TRIPOS>MOLECULE
(+)-camphoric_acid
    30    30     1     0     0
SMALL
NO_CHARGES
****
Generated from the CSD

@<TRIPOS>ATOM
     1 C1      -0.9808  -2.0436   0.7560   C.2       1 RES1   0.0000
     2 C2      -0.3981  -0.9603  -0.1502   C.3       1 RES1   0.0000
     3 C3      -1.4295  -0.3279  -1.1098   C.3       1 RES1   0.0000
     4 C4      -0.7488   0.9588  -1.5879   C.3       1 RES1   0.0000
     5 C5      -0.0196   1.4755  -0.3340   C.3       1 RES1   0.0000
     6 C6       1.2410   2.2849  -0.5939   C.2       1 RES1   0.0000
     7 C7       0.1286   0.2733   0.6487   C.3       1 RES1   0.0000
     8 C8      -0.7564   0.5448   1.8939   C.3       1 RES1   0.0000
     9 C9       1.5670   0.0921   1.1765   C.3       1 RES1   0.0000
    10 C10      0.6958  -1.6738  -0.9767   C.3       1 RES1   0.0000
    11 O11     -0.3722  -2.6661   1.5939   O.2       1 RES1   0.0000
    12 O12     -2.2807  -2.2994   0.5266   O.3       1 RES1   0.0000
    13 O13      1.6086   3.2449   0.0412   O.2       1 RES1   0.0000
    14 O14      1.9812   1.8036  -1.6088   O.3       1 RES1   0.0000
    15 H15     -1.7151  -0.9965  -1.9531   H         1 RES1   0.0000
    16 H16     -2.3620  -0.0409  -0.5693   H         1 RES1   0.0000
    17 H17     -1.4790   1.6956  -1.9955   H         1 RES1   0.0000
    18 H18     -0.0478   0.7102  -2.4154   H         1 RES1   0.0000
    19 H19     -0.7127   2.2216   0.1306   H         1 RES1   0.0000
    20 H20     -0.6596  -0.2521   2.6641   H         1 RES1   0.0000
    21 H21     -0.4647   1.4954   2.3962   H         1 RES1   0.0000
    22 H22     -1.8357   0.6271   1.6353   H         1 RES1   0.0000
    23 H23      1.8839   0.9612   1.7963   H         1 RES1   0.0000
    24 H24      1.6473  -0.8110   1.8223   H         1 RES1   0.0000
    25 H25      2.3187  -0.0164   0.3657   H         1 RES1   0.0000
    26 H26      1.2546  -0.9797  -1.6410   H         1 RES1   0.0000
    27 H27      1.4480  -2.1837  -0.3344   H         1 RES1   0.0000
    28 H28      0.2512  -2.4617  -1.6267   H         1 RES1   0.0000
    29 H29     -2.5497  -3.0187   1.1215   H         1 RES1   0.0000
    30 H30      2.7875   2.3416  -1.6716   H         1 RES1   0.0000
@<TRIPOS>BOND
     1     1     2    1
     2     1    11    2
     3     1    12    1
     4     2     3    1
     5     2     7    1
     6     2    10    1
     7     3     4    1
     8     3    15    1
     9     3    16    1
    10     4     5    1
    11     4    17    1
    12     4    18    1
    13     5     6    1
    14     5     7    1
    15     5    19    1
    16     6    13    2
    17     6    14    1
    18     7     8    1
    19     7     9    1
    20     8    20    1
    21     8    21    1
    22     8    22    1
    23     9    23    1
    24     9    24    1
    25     9    25    1
    26    10    26    1
    27    10    27    1
    28    10    28    1
    29    12    29    1
    30    14    30    1
@<TRIPOS>SUBSTRUCTURE
     1 RES1        1 GROUP             0 ****  ****    0  
