@<TRIPOS>MOLECULE
(-)-camphorsulfonic_acid
    31    32     1     0     0
SMALL
NO_CHARGES
****
Generated from the CSD

@<TRIPOS>ATOM
     1 C1       1.6132   0.2963   0.7285   C.3       1 RES1   0.0000
     2 C2       0.6529   1.0706  -0.1956   C.3       1 RES1   0.0000
     3 C3       1.5224   1.4384  -1.4141   C.3       1 RES1   0.0000
     4 C4      -0.0501   2.2697   0.4928   C.3       1 RES1   0.0000
     5 C5      -1.0001   2.8009  -0.6015   C.3       1 RES1   0.0000
     6 C6      -1.4658   1.4914  -1.2838   C.3       1 RES1   0.0000
     7 C7      -0.6862   0.3668  -0.5286   C.3       1 RES1   0.0000
     8 C8      -0.7283  -0.9902  -1.2567   C.3       1 RES1   0.0000
     9 S9      -0.0394  -2.5759  -0.8315   S.o2      1 RES1   0.0000
    10 O10      1.2740  -2.5343  -1.6379   O.3       1 RES1   0.0000
    11 O11     -0.6795  -3.5850  -1.5874   O.2       1 RES1   0.0000
    12 O12      0.2452  -2.7603   0.5405   O.2       1 RES1   0.0000
    13 C13     -1.3587   0.3339   0.8411   C.2       1 RES1   0.0000
    14 O14     -2.1062  -0.5166   1.2673   O.2       1 RES1   0.0000
    15 C15     -0.9222   1.5909   1.5636   C.3       1 RES1   0.0000
    16 H        2.0852  -0.5394   0.1853   H         1 RES1   0.0000
    17 H        2.4213   0.9624   1.0747   H         1 RES1   0.0000
    18 H        1.1389  -0.1343   1.6239   H         1 RES1   0.0000
    19 H        1.9140   0.5241  -1.8915   H         1 RES1   0.0000
    20 H        1.0039   2.0124  -2.1962   H         1 RES1   0.0000
    21 H        2.3868   2.0426  -1.0905   H         1 RES1   0.0000
    22 H        0.6141   3.0406   0.9111   H         1 RES1   0.0000
    23 H       -0.4737   3.4578  -1.3116   H         1 RES1   0.0000
    24 H       -1.8300   3.3943  -0.1861   H         1 RES1   0.0000
    25 H       -1.2022   1.4840  -2.3530   H         1 RES1   0.0000
    26 H       -2.5562   1.3384  -1.2452   H         1 RES1   0.0000
    27 H       -1.7938  -1.2473  -1.3833   H         1 RES1   0.0000
    28 H       -0.3326  -0.8384  -2.2729   H         1 RES1   0.0000
    29 H        0.8752  -3.1096  -2.2778   H         1 RES1   0.0000
    30 H       -0.3668   1.3142   2.4716   H         1 RES1   0.0000
    31 H       -1.7916   2.1809   1.8869   H         1 RES1   0.0000
@<TRIPOS>BOND
     1     1     2    1
     2     2     3    1
     3     2     4    1
     4     4     5    1
     5     5     6    1
     6     6     7    1
     7     7     2    1
     8     7     8    1
     9     8     9    1
    10     9    10    1
    11     9    11    2
    12     9    12    2
    13     7    13    1
    14    13    14    2
    15    13    15    1
    16    15     4    1
    17     1    16    1
    18     1    17    1
    19     1    18    1
    20     3    19    1
    21     3    20    1
    22     3    21    1
    23     4    22    1
    24     5    23    1
    25     5    24    1
    26     6    25    1
    27     6    26    1
    28     8    27    1
    29     8    28    1
    30    10    29    1
    31    15    30    1
    32    15    31    1
@<TRIPOS>SUBSTRUCTURE
     1 RES1        1 GROUP             0 ****  ****    0  
