@<TRIPOS>MOLECULE
1-hydroxyethylidene-1,1-diphosphonic_acid
    19    18     1     0     0
SMALL
NO_CHARGES
****
Generated from the CSD

@<TRIPOS>ATOM
     1 C1       2.2933   0.2774  -0.0506   C.3       1 ****   0.0000
     2 C2       0.8487   0.6711  -0.4271   C.3       1 ****   0.0000
     3 O3       0.8710   1.9058  -1.1968   O.3       1 ****   0.0000
     4 P4      -0.0064  -0.7063  -1.2425   P.3       1 ****   0.0000
     5 O5      -1.5218  -0.5726  -1.6102   O.3       1 ****   0.0000
     6 O6       0.2110  -2.1746  -0.7279   O.3       1 ****   0.0000
     7 O7       0.3109  -0.8867  -2.6416   O.2       1 ****   0.0000
     8 P8      -0.1956   0.7590   1.0561   P.3       1 ****   0.0000
     9 O9      -1.7304   1.0684   0.9317   O.3       1 ****   0.0000
    10 O10      0.3315   1.5403   2.3081   O.3       1 ****   0.0000
    11 O11     -0.2955  -0.4322   1.8686   O.2       1 ****   0.0000
    12 H        2.7662   1.0808   0.5370   H         1 ****   0.0000
    13 H        2.9048   0.1247  -0.9542   H         1 ****   0.0000
    14 H        2.3302  -0.6481   0.5458   H         1 ****   0.0000
    15 H        1.2963   1.7044  -2.0279   H         1 ****   0.0000
    16 H       -1.4621  -0.7808  -2.5336   H         1 ****   0.0000
    17 H       -0.1469  -2.7124  -1.4171   H         1 ****   0.0000
    18 H       -2.0829   0.7545   1.7494   H         1 ****   0.0000
    19 H        0.1319   0.8866   2.9653   H         1 ****   0.0000
@<TRIPOS>BOND
     1     1     2    1
     2     2     3    1
     3     2     4    1
     4     4     5    1
     5     4     6    1
     6     4     7    2
     7     2     8    1
     8     8     9    1
     9     8    10    1
    10     8    11    2
    11     1    12    1
    12     1    13    1
    13     1    14    1
    14     3    15    1
    15     5    16    1
    16     6    17    1
    17     9    18    1
    18    10    19    1
@<TRIPOS>SUBSTRUCTURE
     1 ****        1 GROUP             0 ****  ****    0  
