@<TRIPOS>MOLECULE
2-amino-5-methylbenzoic_acid
    20    20     1     0     0
SMALL
NO_CHARGES
****
Generated from the CSD

@<TRIPOS>ATOM
     1 C1      -0.6700  -0.1163  -0.8546   C.2       1 RES1   0.0000
     2 C2       0.2677  -1.1332  -0.3203   C.ar      1 RES1   0.0000
     3 C3       1.0855  -0.8664   0.7991   C.ar      1 RES1   0.0000
     4 C4       1.9605  -1.8597   1.2710   C.ar      1 RES1   0.0000
     5 C5       2.0233  -3.1014   0.6430   C.ar      1 RES1   0.0000
     6 C6       1.2176  -3.3844  -0.4686   C.ar      1 RES1   0.0000
     7 C7       0.3487  -2.3953  -0.9379   C.ar      1 RES1   0.0000
     8 O8      -1.3688  -0.3683  -1.8308   O.2       1 RES1   0.0000
     9 O9      -0.8183   1.1170  -0.3268   O.3       1 RES1   0.0000
    10 C10      1.2811  -4.7284  -1.1511   C.3       1 RES1   0.0000
    11 N11      1.0751   0.3471   1.4746   N.pl3     1 RES1   0.0000
    12 H12      2.6038  -1.6610   2.1437   H         1 RES1   0.0000
    13 H13      2.7168  -3.8643   1.0316   H         1 RES1   0.0000
    14 H14     -0.2791  -2.6298  -1.8126   H         1 RES1   0.0000
    15 H15     -1.4848   1.5876  -0.8526   H         1 RES1   0.0000
    16 H16      2.0145  -5.4126  -0.6688   H         1 RES1   0.0000
    17 H17      1.5839  -4.6084  -2.2159   H         1 RES1   0.0000
    18 H18      0.2858  -5.2267  -1.1184   H         1 RES1   0.0000
    19 H19      1.7065   0.4870   2.3009   H         1 RES1   0.0000
    20 H20      0.4475   1.1326   1.1781   H         1 RES1   0.0000
@<TRIPOS>BOND
     1     1     2    1
     2     1     8    2
     3     1     9    1
     4     2     3   ar
     5     2     7   ar
     6     3     4   ar
     7     3    11    1
     8     4     5   ar
     9     4    12    1
    10     5     6   ar
    11     5    13    1
    12     6     7   ar
    13     6    10    1
    14     7    14    1
    15     9    15    1
    16    10    16    1
    17    10    17    1
    18    10    18    1
    19    11    19    1
    20    11    20    1
@<TRIPOS>SUBSTRUCTURE
     1 RES1        1 GROUP             0 ****  ****    0  
