@<TRIPOS>MOLECULE
3-methylpyridine
    14    14     1     0     0
SMALL
NO_CHARGES
****
Generated from the CSD

@<TRIPOS>ATOM
     1 C1      -3.3049   1.0420   0.0830   C.ar      1 RES1   0.0000
     2 C2      -2.0638   0.3951   0.0210   C.ar      1 RES1   0.0000
     3 C3      -2.0716  -1.0035  -0.0171   C.ar      1 RES1   0.0000
     4 C4      -3.2946  -1.6758   0.0070   C.ar      1 RES1   0.0000
     5 C5      -4.4692  -0.9216   0.0730   C.ar      1 RES1   0.0000
     6 N6      -4.4877   0.4156   0.1108   N.ar      1 RES1   0.0000
     7 C7      -0.7653   1.1593  -0.0069   C.3       1 RES1   0.0000
     8 H8      -3.3524   2.1426   0.1138   H         1 RES1   0.0000
     9 H9      -1.1267  -1.5673  -0.0660   H         1 RES1   0.0000
    10 H10     -3.3327  -2.7761  -0.0243   H         1 RES1   0.0000
    11 H11     -5.4496  -1.4245   0.0976   H         1 RES1   0.0000
    12 H12     -0.9242   2.2607  -0.0134   H         1 RES1   0.0000
    13 H13     -0.1549   0.9097   0.8904   H         1 RES1   0.0000
    14 H14     -0.1805   0.8961  -0.9174   H         1 RES1   0.0000
@<TRIPOS>BOND
     1     1     2   ar
     2     1     6   ar
     3     1     8    1
     4     2     3   ar
     5     2     7    1
     6     3     4   ar
     7     3     9    1
     8     4     5   ar
     9     4    10    1
    10     5     6   ar
    11     5    11    1
    12     7    12    1
    13     7    13    1
    14     7    14    1
@<TRIPOS>SUBSTRUCTURE
     1 RES1        1 GROUP             0 ****  ****    0  
