@<TRIPOS>MOLECULE
4-aminobenzoic_acid
    17    17     1     0     0
SMALL
NO_CHARGES
****
Generated from the CSD

@<TRIPOS>ATOM
     1 C1      -1.2805   0.1962   0.0758   C.ar      1 RES1   0.0000
     2 C2      -1.2647  -1.1466   0.0748   C.ar      1 RES1   0.0000
     3 C3      -0.0986  -1.8090   0.0342   C.ar      1 RES1   0.0000
     4 C4       1.0508  -1.1180  -0.0054   C.ar      1 RES1   0.0000
     5 C5       1.0321   0.2247  -0.0043   C.ar      1 RES1   0.0000
     6 C6      -0.1324   0.8996   0.0363   C.ar      1 RES1   0.0000
     7 C7      -0.1305   2.2646   0.0367   C.2       1 RES1   0.0000
     8 O8       1.0162   2.9882  -0.0029   O.3       1 RES1   0.0000
     9 O9      -1.1468   2.9257   0.0721   O.2       1 RES1   0.0000
    10 N10     -0.0827  -3.0764   0.0332   N.pl3     1 RES1   0.0000
    11 H       -2.2656   0.6907   0.1102   H         1 RES1   0.0000
    12 H       -2.2194  -1.6996   0.1078   H         1 RES1   0.0000
    13 H        2.0191  -1.6464  -0.0392   H         1 RES1   0.0000
    14 H        2.0026   0.7477  -0.0378   H         1 RES1   0.0000
    15 H        0.7803   3.9297   0.0056   H         1 RES1   0.0000
    16 H        0.8302  -3.5930   0.0014   H         1 RES1   0.0000
    17 H       -0.9828  -3.6150   0.0642   H         1 RES1   0.0000
@<TRIPOS>BOND
     1     1     2   ar
     2     1     6   ar
     3     1    11    1
     4     2     3   ar
     5     2    12    1
     6     3     4   ar
     7     3    10    1
     8     4     5   ar
     9     4    13    1
    10     5     6   ar
    11     5    14    1
    12     6     7    1
    13     7     8    1
    14     7     9    2
    15     8    15    1
    16    10    16    1
    17    10    17    1
@<TRIPOS>SUBSTRUCTURE
     1 RES1        1 GROUP             0 A     ****    0  
