@<TRIPOS>MOLECULE
4-hydroxybenzoic_acid
    16    16     1     0     0
SMALL
NO_CHARGES
****
Generated from the CSD

@<TRIPOS>ATOM
     1 C1      -1.2357   0.1206   0.0676   C.ar      1 RES1   0.0000
     2 C2      -1.2032  -1.2213   0.0522   C.ar      1 RES1   0.0000
     3 C3      -0.0419  -1.8963   0.0484   C.ar      1 RES1   0.0000
     4 C4       1.0926  -1.1772   0.0604   C.ar      1 RES1   0.0000
     5 C5       1.0727   0.1649   0.0759   C.ar      1 RES1   0.0000
     6 C6      -0.0945   0.8347   0.0797   C.ar      1 RES1   0.0000
     7 C7      -0.1024   2.1992   0.0955   C.2       1 RES1   0.0000
     8 O8       1.0396   2.9310   0.1077   O.3       1 RES1   0.0000
     9 O9      -1.1249   2.8516   0.0996   O.2       1 RES1   0.0000
    10 O10     -0.0232  -3.2564   0.0326   O.3       1 RES1   0.0000
    11 H       -2.2265   0.6046   0.0699   H         1 RES1   0.0000
    12 H       -2.1509  -1.7862   0.0424   H         1 RES1   0.0000
    13 H        2.0609  -1.7060   0.0575   H         1 RES1   0.0000
    14 H        2.0418   0.6913   0.0851   H         1 RES1   0.0000
    15 H        0.7965   3.8707   0.1178   H         1 RES1   0.0000
    16 H       -0.9359  -3.5873   0.0237   H         1 RES1   0.0000
@<TRIPOS>BOND
     1     1     2   ar
     2     1     6   ar
     3     1    11    1
     4     2     3   ar
     5     2    12    1
     6     3     4   ar
     7     3    10    1
     8     4     5   ar
     9     4    13    1
    10     5     6   ar
    11     5    14    1
    12     6     7    1
    13     7     8    1
    14     7     9    2
    15     8    15    1
    16    10    16    1
@<TRIPOS>SUBSTRUCTURE
     1 RES1        1 GROUP             0 A     ****    0  
