@<TRIPOS>MOLECULE
acesulfame
    15    15     1     0     0
SMALL
NO_CHARGES
****
Generated from the CSD

@<TRIPOS>ATOM
     1 C1       2.3420  -1.4276   0.2958   C.3       1 ****   0.0000
     2 C2       1.1026  -0.8807  -0.3532   C.2       1 ****   0.0000
     3 C3       1.0055  -0.5094  -1.6501   C.2       1 ****   0.0000
     4 C4      -0.2632   0.0578  -2.1289   C.2       1 ****   0.0000
     5 O5      -0.3546   0.4425  -3.2723   O.2       1 ****   0.0000
     6 N6      -1.3068   0.1180  -1.2772   N.am      1 ****   0.0000
     7 S7      -0.8224   0.5732   0.2355   S.o2      1 ****   0.0000
     8 O8       0.0542   1.6883   0.1937   O.2       1 ****   0.0000
     9 O9      -1.9356   0.5440   1.1086   O.2       1 ****   0.0000
    10 O10      0.0070  -0.7538   0.4598   O.3       1 ****   0.0000
    11 H        2.6713  -0.7905   1.1334   H         1 ****   0.0000
    12 H        3.1673  -1.4761  -0.4285   H         1 ****   0.0000
    13 H        2.1763  -2.4460   0.6839   H         1 ****   0.0000
    14 H        1.8401  -0.5855  -2.3441   H         1 ****   0.0000
    15 H       -1.9073   0.8326  -1.6043   H         1 ****   0.0000
@<TRIPOS>BOND
     1     1     2    1
     2     2     3    2
     3     3     4    1
     4     4     5    2
     5     4     6   am
     6     6     7    1
     7     7     8    2
     8     7     9    2
     9     7    10    1
    10    10     2    1
    11     1    11    1
    12     1    12    1
    13     1    13    1
    14     3    14    1
    15     6    15    1
@<TRIPOS>SUBSTRUCTURE
     1 ****        1 GROUP             0 ****  ****    0  
