@<TRIPOS>MOLECULE
acetic_acid
     8     7     1     0     0
SMALL
NO_CHARGES
****
Generated from the CSD

@<TRIPOS>ATOM
     1 C1      -2.0463   0.0946  -0.0004   C.2       1 ****   0.0000
     2 C2      -3.3935  -0.5930  -0.0015   C.3       1 ****   0.0000
     3 O3      -0.9623  -0.4379   0.0139   O.2       1 ****   0.0000
     4 O4      -2.1767   1.4339  -0.0128   O.3       1 ****   0.0000
     5 H5      -3.2648  -1.6989  -0.0012   H         1 ****   0.0000
     6 H6      -3.9736  -0.3105   0.9062   H         1 ****   0.0000
     7 H7      -3.9743  -0.3111  -0.9089   H         1 ****   0.0000
     8 H8      -1.2857   1.8204   0.0008   H         1 ****   0.0000
@<TRIPOS>BOND
     1     1     2    1
     2     1     3    2
     3     1     4    1
     4     2     5    1
     5     2     6    1
     6     2     7    1
     7     4     8    1
@<TRIPOS>SUBSTRUCTURE
     1 ****        1 GROUP             0 ****  ****    0  
