@<TRIPOS>MOLECULE
acetylenedicarboxylic_acid
    10     9     1     0     0
SMALL
NO_CHARGES
****
Generated from the CSD

@<TRIPOS>ATOM
     1 C1       0.5178  -0.3235  -0.1098   C.1       1 RES1   0.0000
     2 C2      -0.5296   0.2847  -0.1515   C.1       1 RES1   0.0000
     3 C3       1.9948  -1.1767  -0.0506   C.2       1 RES1   0.0000
     4 O4       2.9843  -0.6487  -0.5367   O.2       1 RES1   0.0000
     5 O5       2.0209  -2.3920   0.5348   O.3       1 RES1   0.0000
     6 C6      -2.0081   1.1356  -0.2082   C.2       1 RES1   0.0000
     7 O7      -3.0321   0.4979  -0.4059   O.2       1 RES1   0.0000
     8 O8      -1.9961   2.4722  -0.0246   O.3       1 RES1   0.0000
     9 H9       1.1340  -2.6332   0.8469   H         1 RES1   0.0000
    10 H10     -1.0860   2.7834   0.1059   H         1 RES1   0.0000
@<TRIPOS>BOND
     1     1     2    3
     2     1     3    1
     3     2     6    1
     4     3     4    2
     5     3     5    1
     6     5     9    1
     7     6     7    2
     8     6     8    1
     9     8    10    1
@<TRIPOS>SUBSTRUCTURE
     1 RES1        1 GROUP             0 ****  ****    0  
