@<TRIPOS>MOLECULE
acetophenone_oxime
    19    19     1     0     0
SMALL
NO_CHARGES
****
Generated from the CSD

@<TRIPOS>ATOM
     1 C1       0.8446   1.0843  -0.2022   C.2       1 RES1   0.0000
     2 C2       2.0010   0.9669  -1.1874   C.3       1 RES1   0.0000
     3 C3      -0.0077   0.0533   0.0246   C.ar      1 RES1   0.0000
     4 C4       0.1707  -1.1273  -0.6094   C.ar      1 RES1   0.0000
     5 C5      -0.6373  -2.1844  -0.4275   C.ar      1 RES1   0.0000
     6 C6      -1.6791  -2.1000   0.4091   C.ar      1 RES1   0.0000
     7 C7      -1.8892  -0.9447   1.0525   C.ar      1 RES1   0.0000
     8 C8      -1.0675   0.1004   0.8598   C.ar      1 RES1   0.0000
     9 N9       0.8495   2.2454   0.3086   N.2       1 RES1   0.0000
    10 O10      0.0348   2.7307   1.2201   O.3       1 RES1   0.0000
    11 H11      1.6340   0.7251  -2.2108   H         1 RES1   0.0000
    12 H12      2.7285   0.1923  -0.8534   H         1 RES1   0.0000
    13 H13      2.5902   1.9056  -1.2995   H         1 RES1   0.0000
    14 H14      0.9996  -1.2928  -1.3158   H         1 RES1   0.0000
    15 H15     -0.4499  -3.1284  -0.9673   H         1 RES1   0.0000
    16 H16     -2.3505  -2.9609   0.5628   H         1 RES1   0.0000
    17 H17     -2.7470  -0.8582   1.7417   H         1 RES1   0.0000
    18 H18     -1.3361   0.9975   1.4323   H         1 RES1   0.0000
    19 H19      0.3114   3.5951   1.4615   H         1 RES1   0.0000
@<TRIPOS>BOND
     1     1     2    1
     2     1     3    1
     3     1     9    2
     4     2    11    1
     5     2    12    1
     6     2    13    1
     7     3     4   ar
     8     3     8   ar
     9     4     5   ar
    10     4    14    1
    11     5     6   ar
    12     5    15    1
    13     6     7   ar
    14     6    16    1
    15     7     8   ar
    16     7    17    1
    17     8    18    1
    18     9    10    1
    19    10    19    1
@<TRIPOS>SUBSTRUCTURE
     1 RES1        1 GROUP             0 ****  ****    0  
