@<TRIPOS>MOLECULE
adipic_acid
    20    19     1     0     0
SMALL
NO_CHARGES
****
Generated from the CSD

@<TRIPOS>ATOM
     1 C1      -1.7406  -2.7396   0.0038   C.2       1 RES1   0.0000
     2 C2      -0.4761  -1.8996   0.0000   C.3       1 RES1   0.0000
     3 C3      -0.6717  -0.3749   0.0000   C.3       1 RES1   0.0000
     4 C4       0.6717   0.3749   0.0002   C.3       1 RES1   0.0000
     5 C5       0.4761   1.8996  -0.0002   C.3       1 RES1   0.0000
     6 C6       1.7406   2.7396   0.0038   C.2       1 RES1   0.0000
     7 O7      -1.7809  -3.9470   0.0178   O.2       1 RES1   0.0000
     8 O8      -2.8673  -2.0056  -0.0113   O.3       1 RES1   0.0000
     9 O9       1.7809   3.9470   0.0179   O.2       1 RES1   0.0000
    10 O10      2.8673   2.0056  -0.0113   O.3       1 RES1   0.0000
    11 H11      0.1167  -2.1957   0.8979   H         1 RES1   0.0000
    12 H12      0.1121  -2.1967  -0.9004   H         1 RES1   0.0000
    13 H13     -1.2551  -0.0729  -0.9026   H         1 RES1   0.0000
    14 H14     -1.2553  -0.0734   0.9026   H         1 RES1   0.0000
    15 H15      1.2549   0.0736   0.9030   H         1 RES1   0.0000
    16 H16      1.2554   0.0726  -0.9021   H         1 RES1   0.0000
    17 H17     -0.1118   2.1965  -0.9010   H         1 RES1   0.0000
    18 H18     -0.1170   2.1959   0.8973   H         1 RES1   0.0000
    19 H19     -3.6230  -2.6155  -0.0077   H         1 RES1   0.0000
    20 H20      3.6230   2.6155  -0.0076   H         1 RES1   0.0000
@<TRIPOS>BOND
     1     1     2    1
     2     1     7    2
     3     1     8    1
     4     2     3    1
     5     2    11    1
     6     2    12    1
     7     3     4    1
     8     3    13    1
     9     3    14    1
    10     4     5    1
    11     4    15    1
    12     4    16    1
    13     5     6    1
    14     5    17    1
    15     5    18    1
    16     6     9    2
    17     6    10    1
    18     8    19    1
    19    10    20    1
@<TRIPOS>SUBSTRUCTURE
     1 RES1        1 GROUP             0 ****  ****    0  
