@<TRIPOS>MOLECULE
alitame
    47    47     1     0     0
SMALL
NO_CHARGES
****
Generated from the CSD

@<TRIPOS>ATOM
     1 C1      -0.4463  -2.8394   0.8746   C.3       1 RES1   0.0000
     2 C2       0.3390  -1.9558  -0.1106   C.3       1 RES1   0.0000
     3 C3      -0.4764  -0.7117  -0.4273   C.2       1 RES1   0.0000
     4 O4      -1.0067  -0.5366  -1.4980   O.2       1 RES1   0.0000
     5 N5      -0.5504   0.1887   0.5973   N.am      1 RES1   0.0000
     6 C6      -1.2795   1.4522   0.4728   C.3       1 RES1   0.0000
     7 C7      -0.9580   2.4784   1.6053   C.3       1 RES1   0.0000
     8 S8      -2.7197   2.5607   2.1656   S.3       1 RES1   0.0000
     9 C9      -2.8097   1.3609   0.7597   C.3       1 RES1   0.0000
    10 C10     -3.3014  -0.0098   1.2374   C.3       1 RES1   0.0000
    11 C11     -3.6606   1.9169  -0.3884   C.3       1 RES1   0.0000
    12 C12     -0.4836   3.8353   1.0711   C.3       1 RES1   0.0000
    13 C13     -0.0538   1.9523   2.7258   C.3       1 RES1   0.0000
    14 N14      0.6651  -2.7476  -1.3038   N.am      1 RES1   0.0000
    15 C15      1.5754  -2.4696  -2.2911   C.2       1 RES1   0.0000
    16 O16      1.7643  -3.2952  -3.1523   O.2       1 RES1   0.0000
    17 C17      2.2610  -1.1032  -2.3379   C.3       1 RES1   0.0000
    18 C18      3.0836  -0.5977  -1.1438   C.3       1 RES1   0.0000
    19 C19      3.9465  -1.6808  -0.5275   C.2       1 RES1   0.0000
    20 O20      3.7552  -2.2273   0.5321   O.2       1 RES1   0.0000
    21 O21      5.0001  -1.9845  -1.3064   O.3       1 RES1   0.0000
    22 N22      1.3353  -0.0709  -2.8329   N.3       1 RES1   0.0000
    23 H23      0.1300  -3.7564   1.1373   H         1 RES1   0.0000
    24 H24     -1.4162  -3.1633   0.4323   H         1 RES1   0.0000
    25 H25     -0.6689  -2.3031   1.8257   H         1 RES1   0.0000
    26 H26      1.2712  -1.6669   0.4190   H         1 RES1   0.0000
    27 H27     -0.1607  -0.0769   1.5015   H         1 RES1   0.0000
    28 H28     -1.0703   1.9062  -0.5231   H         1 RES1   0.0000
    29 H29     -4.3589   0.0447   1.5818   H         1 RES1   0.0000
    30 H30     -2.6929  -0.4072   2.0808   H         1 RES1   0.0000
    31 H31     -3.2619  -0.7520   0.4084   H         1 RES1   0.0000
    32 H32     -3.5928   1.2491  -1.2773   H         1 RES1   0.0000
    33 H33     -3.3295   2.9320  -0.7053   H         1 RES1   0.0000
    34 H34     -4.7329   1.9875  -0.0967   H         1 RES1   0.0000
    35 H35     -0.4234   4.5903   1.8876   H         1 RES1   0.0000
    36 H36     -1.1622   4.2411   0.2869   H         1 RES1   0.0000
    37 H37      0.5310   3.7388   0.6220   H         1 RES1   0.0000
    38 H38     -0.4293   1.0001   3.1639   H         1 RES1   0.0000
    39 H39      0.9756   1.7702   2.3416   H         1 RES1   0.0000
    40 H40      0.0236   2.6903   3.5562   H         1 RES1   0.0000
    41 H41      0.1781  -3.6341  -1.4350   H         1 RES1   0.0000
    42 H42      3.0152  -1.2198  -3.1604   H         1 RES1   0.0000
    43 H43      2.4370  -0.1337  -0.3686   H         1 RES1   0.0000
    44 H44      3.7502   0.2360  -1.4702   H         1 RES1   0.0000
    45 H45      5.5066  -2.6907  -0.8725   H         1 RES1   0.0000
    46 H46      1.2529  -0.1264  -3.8627   H         1 RES1   0.0000
    47 H47      0.3707  -0.2282  -2.4988   H         1 RES1   0.0000
@<TRIPOS>BOND
     1     2     1    1
     2     1    23    1
     3     1    24    1
     4     1    25    1
     5     2     3    1
     6     2    14    1
     7     2    26    1
     8     3     4    2
     9     3     5   am
    10     5     6    1
    11     5    27    1
    12     6     7    1
    13     6     9    1
    14     6    28    1
    15     7     8    1
    16     7    12    1
    17     7    13    1
    18     8     9    1
    19     9    10    1
    20     9    11    1
    21    10    29    1
    22    10    30    1
    23    10    31    1
    24    11    32    1
    25    11    33    1
    26    11    34    1
    27    12    35    1
    28    12    36    1
    29    12    37    1
    30    13    38    1
    31    13    39    1
    32    13    40    1
    33    14    15   am
    34    14    41    1
    35    15    16    2
    36    15    17    1
    37    17    18    1
    38    17    22    1
    39    17    42    1
    40    18    19    1
    41    18    43    1
    42    18    44    1
    43    19    20    2
    44    19    21    1
    45    21    45    1
    46    22    46    1
    47    22    47    1
@<TRIPOS>SUBSTRUCTURE
     1 RES1        1 GROUP             0 ****  ****    0  
