@<TRIPOS>MOLECULE
apigenin
    30    32     1     0     0
SMALL
NO_CHARGES
****
Generated from the CSD

@<TRIPOS>ATOM
     1 C1       1.3629  -0.1614   0.0009   C.2       1 RES1   0.0000
     2 C2       1.8605   1.0901   0.0294   C.2       1 RES1   0.0000
     3 C3       1.0820   2.2040   0.0418   C.2       1 RES1   0.0000
     4 O4       1.6365   3.2814   0.0673   O.2       1 RES1   0.0000
     5 C5      -0.2709   2.0508   0.0251   C.ar      1 RES1   0.0000
     6 C6      -1.0905   3.1257   0.0373   C.ar      1 RES1   0.0000
     7 O7      -0.6468   4.4143   0.0666   O.3       1 RES1   0.0000
     8 C8      -2.4177   2.9163   0.0195   C.ar      1 RES1   0.0000
     9 C9      -2.9576   1.6900  -0.0095   C.ar      1 RES1   0.0000
    10 O10     -4.3045   1.5013  -0.0282   O.3       1 RES1   0.0000
    11 C11     -2.1093   0.6523  -0.0207   C.ar      1 RES1   0.0000
    12 C12     -0.7722   0.7993  -0.0040   C.ar      1 RES1   0.0000
    13 O13      0.0045  -0.3236  -0.0179   O.3       1 RES1   0.0000
    14 C14      2.1625  -1.2605  -0.0108   C.ar      1 RES1   0.0000
    15 C15      1.5973  -2.4867  -0.0445   C.ar      1 RES1   0.0000
    16 C16      2.3221  -3.6166  -0.0583   C.ar      1 RES1   0.0000
    17 C17      3.6631  -3.5887  -0.0382   C.ar      1 RES1   0.0000
    18 O18      4.4085  -4.7263  -0.0510   O.3       1 RES1   0.0000
    19 C19      4.2399  -2.3782  -0.0038   C.ar      1 RES1   0.0000
    20 C20      3.5118  -1.2500   0.0090   C.ar      1 RES1   0.0000
    21 H21      2.9411   1.2989   0.0442   H         1 RES1   0.0000
    22 H22     -1.4098   5.0144   0.0689   H         1 RES1   0.0000
    23 H23     -3.0966   3.7860   0.0287   H         1 RES1   0.0000
    24 H24     -4.4925   0.5491  -0.0538   H         1 RES1   0.0000
    25 H25     -2.5298  -0.3676  -0.0448   H         1 RES1   0.0000
    26 H26      0.5022  -2.6194  -0.0633   H         1 RES1   0.0000
    27 H27      1.8109  -4.5942  -0.0866   H         1 RES1   0.0000
    28 H28      5.3494  -4.4878  -0.0280   H         1 RES1   0.0000
    29 H29      5.3418  -2.3157   0.0145   H         1 RES1   0.0000
    30 H30      4.1022  -0.3225   0.0380   H         1 RES1   0.0000
@<TRIPOS>BOND
     1     2     1    2
     2     1    13    1
     3     1    14    1
     4     3     2    1
     5     2    21    1
     6     3     4    2
     7     3     5    1
     8     5     6   ar
     9    12     5   ar
    10     6     7    1
    11     6     8   ar
    12     7    22    1
    13     8     9   ar
    14     8    23    1
    15     9    10    1
    16     9    11   ar
    17    10    24    1
    18    12    11   ar
    19    11    25    1
    20    13    12    1
    21    14    15   ar
    22    14    20   ar
    23    15    16   ar
    24    15    26    1
    25    16    17   ar
    26    16    27    1
    27    17    18    1
    28    17    19   ar
    29    18    28    1
    30    19    20   ar
    31    19    29    1
    32    20    30    1
@<TRIPOS>SUBSTRUCTURE
     1 RES1        1 GROUP             0 ****  ****    0  
