@<TRIPOS>MOLECULE
benzoic_acid
    15    15     1     0     0
SMALL
NO_CHARGES
****
Generated from the CSD

@<TRIPOS>ATOM
     1 C1       1.1600   1.5253  -0.4067   C.2       1 RES1   0.0000
     2 C2       0.3131   0.4944  -0.1322   C.ar      1 RES1   0.0000
     3 C3       0.8042  -0.7172   0.1890   C.ar      1 RES1   0.0000
     4 C4      -0.0227  -1.7392   0.4618   C.ar      1 RES1   0.0000
     5 C5      -1.3515  -1.5621   0.4162   C.ar      1 RES1   0.0000
     6 C6      -1.8493  -0.3583   0.0968   C.ar      1 RES1   0.0000
     7 C7      -1.0223   0.6640  -0.1758   C.ar      1 RES1   0.0000
     8 O8       0.7436   2.6245  -0.6968   O.2       1 RES1   0.0000
     9 O9       2.5068   1.4064  -0.3769   O.3       1 RES1   0.0000
    10 H10      1.8898  -0.9057   0.2380   H         1 RES1   0.0000
    11 H11      0.3901  -2.7280   0.7244   H         1 RES1   0.0000
    12 H12     -2.0305  -2.4018   0.6403   H         1 RES1   0.0000
    13 H13     -2.9420  -0.2104   0.0587   H         1 RES1   0.0000
    14 H14     -1.4745   1.6367  -0.4337   H         1 RES1   0.0000
    15 H15      2.8855   2.2709  -0.6025   H         1 RES1   0.0000
@<TRIPOS>BOND
     1     1     2    1
     2     1     8    2
     3     1     9    1
     4     2     3   ar
     5     2     7   ar
     6     3     4   ar
     7     3    10    1
     8     4     5   ar
     9     4    11    1
    10     5     6   ar
    11     5    12    1
    12     6     7   ar
    13     6    13    1
    14     7    14    1
    15     9    15    1
@<TRIPOS>SUBSTRUCTURE
     1 RES1        1 GROUP             0 ****  ****    0  
