@<TRIPOS>MOLECULE
biotin
    32    33     1     0     0
SMALL
NO_CHARGES
****
Generated from the CSD

@<TRIPOS>ATOM
     1 O1       4.9124   0.9534  -3.3544   O.3       1 RES1   0.0000
     2 C2       3.7641   0.2962  -3.1073   C.2       1 RES1   0.0000
     3 C3       3.1496   0.7252  -1.7880   C.3       1 RES1   0.0000
     4 C4       2.0629  -0.2413  -1.2907   C.3       1 RES1   0.0000
     5 C5       1.4735   0.1991   0.0599   C.3       1 RES1   0.0000
     6 C6       0.4691  -0.8298   0.6105   C.3       1 RES1   0.0000
     7 C7      -0.1628  -0.3952   1.9475   C.3       1 RES1   0.0000
     8 C8      -1.3935   0.5230   1.8259   C.3       1 RES1   0.0000
     9 N9      -1.5108   1.2649   0.5647   N.am      1 RES1   0.0000
    10 C10     -2.6457   1.0090  -0.1393   C.2       1 RES1   0.0000
    11 O11     -2.9601   1.4942  -1.1925   O.2       1 RES1   0.0000
    12 H12     -1.4141   1.2580   2.6667   H         1 RES1   0.0000
    13 C13     -2.7120  -0.3159   1.8319   C.3       1 RES1   0.0000
    14 N14     -3.3558   0.1001   0.5801   N.am      1 RES1   0.0000
    15 H15     -3.3596  -0.0230   2.6927   H         1 RES1   0.0000
    16 C16     -2.3903  -1.8140   1.8708   C.3       1 RES1   0.0000
    17 S17     -0.8326  -1.8673   2.8063   S.3       1 RES1   0.0000
    18 O18      3.3331  -0.5298  -3.8759   O.2       1 RES1   0.0000
    19 H19      5.2584   0.6406  -4.2062   H         1 RES1   0.0000
    20 H20      2.7172   1.7444  -1.9245   H         1 RES1   0.0000
    21 H21      3.9583   0.7921  -1.0221   H         1 RES1   0.0000
    22 H22      2.5047  -1.2612  -1.1868   H         1 RES1   0.0000
    23 H23      1.2419  -0.3062  -2.0444   H         1 RES1   0.0000
    24 H24      0.9865   1.1935  -0.0615   H         1 RES1   0.0000
    25 H25      2.3020   0.3302   0.7963   H         1 RES1   0.0000
    26 H26      1.0358  -1.7817   0.7554   H         1 RES1   0.0000
    27 H27     -0.3199  -1.0386  -0.1482   H         1 RES1   0.0000
    28 H28      0.6251   0.0782   2.5801   H         1 RES1   0.0000
    29 H29     -0.8240   1.9341   0.2263   H         1 RES1   0.0000
    30 H30     -4.2527  -0.2498   0.2516   H         1 RES1   0.0000
    31 H31     -3.2055  -2.4070   2.3421   H         1 RES1   0.0000
    32 H32     -2.2286  -2.2055   0.8403   H         1 RES1   0.0000
@<TRIPOS>BOND
     1     1     2    1
     2     1    19    1
     3     2     3    1
     4     2    18    2
     5     3     4    1
     6     3    20    1
     7     3    21    1
     8     4     5    1
     9     4    22    1
    10     4    23    1
    11     5     6    1
    12     5    24    1
    13     5    25    1
    14     7     6    1
    15     6    26    1
    16     6    27    1
    17     7     8    1
    18     7    17    1
    19     7    28    1
    20     8     9    1
    21     8    12    1
    22     8    13    1
    23     9    10   am
    24     9    29    1
    25    10    11    2
    26    10    14   am
    27    13    14    1
    28    13    15    1
    29    13    16    1
    30    14    30    1
    31    16    17    1
    32    16    31    1
    33    16    32    1
@<TRIPOS>SUBSTRUCTURE
     1 RES1        1 GROUP             0 ****  ****    0  
