@<TRIPOS>MOLECULE
cholic_acid
    69    72     1     0     0
SMALL
NO_CHARGES
****
Generated from the CSD

@<TRIPOS>ATOM
     1 C1      -0.8119   0.2537  -2.2176   C.3       1 RES1   0.0000
     2 C2      -1.7690  -0.8158  -2.7271   C.3       1 RES1   0.0000
     3 C3      -2.4533  -1.2151  -1.5495   C.3       1 RES1   0.0000
     4 O4      -3.7152  -1.7442  -1.8547   O.3       1 RES1   0.0000
     5 C5      -1.5367  -2.2846  -0.9701   C.3       1 RES1   0.0000
     6 C6      -0.1008  -1.7769  -0.9701   C.3       1 RES1   0.0000
     7 H7       0.4239  -2.1480  -0.0614   H         1 RES1   0.0000
     8 C8       0.6171  -2.2846  -2.2137   C.3       1 RES1   0.0000
     9 C9       2.1584  -1.7637  -2.1612   C.3       1 RES1   0.0000
    10 O10      2.4424  -0.9796  -3.2882   O.3       1 RES1   0.0000
    11 C11      2.2914  -0.9296  -0.8939   C.3       1 RES1   0.0000
    12 C12      3.7213  -0.4201  -0.7693   C.3       1 RES1   0.0000
    13 C13      4.6723  -1.6028  -0.6417   C.3       1 RES1   0.0000
    14 C14      5.8490  -1.0459   0.1486   C.3       1 RES1   0.0000
    15 C15      5.3833   0.5500   0.6652   C.3       1 RES1   0.0000
    16 C16      5.8227   0.8573   2.0907   C.3       1 RES1   0.0000
    17 C17      7.3434   0.9136   2.1515   C.3       1 RES1   0.0000
    18 C18      7.7827   2.2940   2.6217   C.3       1 RES1   0.0000
    19 C19      9.2895   2.3498   2.6819   C.2       1 RES1   0.0000
    20 C20      5.2467   2.2002   2.5203   C.3       1 RES1   0.0000
    21 C21      3.8815   0.3253   0.5491   C.3       1 RES1   0.0000
    22 C22      3.2999  -0.4324   1.7353   C.3       1 RES1   0.0000
    23 C23      3.1723   1.6703   0.4612   C.3       1 RES1   0.0000
    24 O24      3.6219   2.4222  -0.6333   O.3       1 RES1   0.0000
    25 C25      1.5497   1.1506   0.2498   C.3       1 RES1   0.0000
    26 C26      1.3351   0.2537  -0.9622   C.3       1 RES1   0.0000
    27 C27     -0.1008  -0.2539  -0.9701   C.3       1 RES1   0.0000
    28 C28     -0.8256   0.2538   0.2694   C.3       1 RES1   0.0000
    29 O29      9.8427   3.3643   3.0338   O.2       1 RES1   0.0000
    30 O30     10.0126   1.2755   2.3455   O.3       1 RES1   0.0000
    31 H31      1.5286   0.8339  -1.8921   H         1 RES1   0.0000
    32 H32      2.0427  -1.5571  -0.0089   H         1 RES1   0.0000
    33 H33      3.9354   0.2160  -1.6571   H         1 RES1   0.0000
    34 H34     -0.0598   0.4835  -3.0053   H         1 RES1   0.0000
    35 H35     -1.3837   1.1758  -1.9696   H         1 RES1   0.0000
    36 H36     -2.4756  -0.3958  -3.4774   H         1 RES1   0.0000
    37 H37     -1.2544  -1.6569  -3.2433   H         1 RES1   0.0000
    38 H38     -2.6469  -0.3740  -0.8467   H         1 RES1   0.0000
    39 H39     -4.2778  -2.0492  -1.1634   H         1 RES1   0.0000
    40 H40     -1.8486  -2.5144   0.0733   H         1 RES1   0.0000
    41 H41     -1.6044  -3.2067  -1.5897   H         1 RES1   0.0000
    42 H42      0.5965  -3.3972  -2.2320   H         1 RES1   0.0000
    43 H43      0.1138  -1.9032  -3.1302   H         1 RES1   0.0000
    44 H44      2.8716  -2.6181  -2.1569   H         1 RES1   0.0000
    45 H45      3.3001  -0.6057  -3.3978   H         1 RES1   0.0000
    46 H46      5.0014  -1.9553  -1.6449   H         1 RES1   0.0000
    47 H47      4.2004  -2.4806  -0.1462   H         1 RES1   0.0000
    48 H48      6.0583  -1.6900   1.0318   H         1 RES1   0.0000
    49 H49      6.7731  -1.0157  -0.4710   H         1 RES1   0.0000
    50 H50      5.8123   1.4100   0.1038   H         1 RES1   0.0000
    51 H51      5.4535   0.0599   2.7738   H         1 RES1   0.0000
    52 H52      7.7144   0.1439   2.8647   H         1 RES1   0.0000
    53 H53      7.7626   0.7158   1.1396   H         1 RES1   0.0000
    54 H54      7.4117   3.0637   1.9084   H         1 RES1   0.0000
    55 H55      7.3635   2.4919   3.6336   H         1 RES1   0.0000
    56 H56      5.5672   2.4258   3.5620   H         1 RES1   0.0000
    57 H57      4.1354   2.1580   2.4755   H         1 RES1   0.0000
    58 H58      5.6163   2.9977   1.8377   H         1 RES1   0.0000
    59 H59      4.1120  -0.6706   2.4583   H         1 RES1   0.0000
    60 H60      2.5309   0.1973   2.2362   H         1 RES1   0.0000
    61 H61      2.8321  -1.3772   1.3786   H         1 RES1   0.0000
    62 H62      3.3361   2.3406   1.3345   H         1 RES1   0.0000
    63 H63      3.2603   3.2761  -0.7986   H         1 RES1   0.0000
    64 H64      0.9069   2.0519   0.1350   H         1 RES1   0.0000
    65 H65      1.2879   0.5454   1.1465   H         1 RES1   0.0000
    66 H66     -0.1298   0.8722   0.8794   H         1 RES1   0.0000
    67 H67     -1.1780  -0.6123   0.8732   H         1 RES1   0.0000
    68 H68     -1.6984   0.8721  -0.0386   H         1 RES1   0.0000
    69 H69     10.9832   1.3114   2.3842   H         1 RES1   0.0000
@<TRIPOS>BOND
     1     1     2    1
     2     1    27    1
     3     1    34    1
     4     1    35    1
     5     2     3    1
     6     2    36    1
     7     2    37    1
     8     3     4    1
     9     3     5    1
    10     3    38    1
    11     4    39    1
    12     5     6    1
    13     5    40    1
    14     5    41    1
    15     6     7    1
    16     6     8    1
    17     6    27    1
    18     8     9    1
    19     8    42    1
    20     8    43    1
    21     9    10    1
    22     9    11    1
    23     9    44    1
    24    10    45    1
    25    11    12    1
    26    11    26    1
    27    11    32    1
    28    12    13    1
    29    12    21    1
    30    12    33    1
    31    13    14    1
    32    13    46    1
    33    13    47    1
    34    15    14    1
    35    14    48    1
    36    14    49    1
    37    15    16    1
    38    15    21    1
    39    15    50    1
    40    16    17    1
    41    16    20    1
    42    16    51    1
    43    17    18    1
    44    17    52    1
    45    17    53    1
    46    18    19    1
    47    18    54    1
    48    18    55    1
    49    19    29    2
    50    19    30    1
    51    20    56    1
    52    20    57    1
    53    20    58    1
    54    21    22    1
    55    21    23    1
    56    22    59    1
    57    22    60    1
    58    22    61    1
    59    23    24    1
    60    23    25    1
    61    23    62    1
    62    24    63    1
    63    25    26    1
    64    25    64    1
    65    25    65    1
    66    26    27    1
    67    26    31    1
    68    27    28    1
    69    28    66    1
    70    28    67    1
    71    28    68    1
    72    30    69    1
@<TRIPOS>SUBSTRUCTURE
     1 RES1        1 GROUP             0 ****  ****    0  
