@<TRIPOS>MOLECULE
citric_acid
    21    20     1     0     0
SMALL
NO_CHARGES
****
Generated from the CSD

@<TRIPOS>ATOM
     1 C1       2.3019  -0.9833  -0.0095   C.2       1 RES1   0.0000
     2 C2       0.8588  -1.4602  -0.0413   C.3       1 RES1   0.0000
     3 C3      -0.2932  -0.4460   0.1079   C.3       1 RES1   0.0000
     4 O4      -1.4690  -1.2121   0.2965   O.3       1 RES1   0.0000
     5 C5      -0.1312   0.4567   1.3298   C.2       1 RES1   0.0000
     6 C6      -0.4897   0.3832  -1.1751   C.3       1 RES1   0.0000
     7 C7      -1.6416   1.3756  -1.2098   C.2       1 RES1   0.0000
     8 O8       3.2759  -1.6984   0.0207   O.2       1 RES1   0.0000
     9 O9       2.4283   0.3534  -0.0074   O.3       1 RES1   0.0000
    10 O10     -0.5828   1.5709   1.4422   O.2       1 RES1   0.0000
    11 O11      0.5429  -0.1304   2.3341   O.3       1 RES1   0.0000
    12 O12     -1.6519   2.4353  -1.7909   O.2       1 RES1   0.0000
    13 O13     -2.7252   0.9326  -0.5487   O.3       1 RES1   0.0000
    14 H14      0.7754  -2.2270   0.7661   H         1 RES1   0.0000
    15 H15      0.7290  -2.0188  -0.9982   H         1 RES1   0.0000
    16 H16     -2.2387  -0.6495   0.4040   H         1 RES1   0.0000
    17 H17      0.4341   0.9622  -1.3997   H         1 RES1   0.0000
    18 H18     -0.6474  -0.3049  -2.0391   H         1 RES1   0.0000
    19 H19      3.3714   0.5734   0.0539   H         1 RES1   0.0000
    20 H20      0.5809   0.4889   3.0802   H         1 RES1   0.0000
    21 H21     -3.4271   1.5982  -0.6154   H         1 RES1   0.0000
@<TRIPOS>BOND
     1     1     2    1
     2     1     8    2
     3     1     9    1
     4     2     3    1
     5     2    14    1
     6     2    15    1
     7     3     4    1
     8     3     5    1
     9     3     6    1
    10     4    16    1
    11     5    10    2
    12     5    11    1
    13     6     7    1
    14     6    17    1
    15     6    18    1
    16     7    12    2
    17     7    13    1
    18     9    19    1
    19    11    20    1
    20    13    21    1
@<TRIPOS>SUBSTRUCTURE
     1 RES1        1 GROUP             0 ****  ****    0  
