@<TRIPOS>MOLECULE
D-alanine
    13    12     1     0     0
SMALL
NO_CHARGES
****
Generated from the CSD

@<TRIPOS>ATOM
     1 C1       2.4092  -0.4466  -0.0934   C.3       1 RES1   0.0000
     2 C2       0.8869  -0.3783   0.0654   C.3       1 RES1   0.0000
     3 N3       0.1796  -1.5851  -0.4418   N.3       1 RES1   0.0000
     4 C4       0.4958   0.0023   1.5280   C.2       1 RES1   0.0000
     5 O5      -0.8544  -0.1771   1.6678   O.3       1 RES1   0.0000
     6 O6       1.1926   0.4402   2.4021   O.2       1 RES1   0.0000
     7 H        2.8708   0.4978   0.2337   H         1 RES1   0.0000
     8 H        2.6684  -0.6053  -1.1526   H         1 RES1   0.0000
     9 H        2.8416  -1.2714   0.4946   H         1 RES1   0.0000
    10 H        0.5180   0.4817  -0.5280   H         1 RES1   0.0000
    11 H        0.5116  -2.4103   0.0306   H         1 RES1   0.0000
    12 H        0.3985  -1.7217  -1.4152   H         1 RES1   0.0000
    13 H       -1.1512  -0.6676   0.8869   H         1 RES1   0.0000
@<TRIPOS>BOND
     1     1     2    1
     2     2     3    1
     3     2     4    1
     4     4     5    1
     5     4     6    2
     6     1     7    1
     7     1     8    1
     8     1     9    1
     9     2    10    1
    10     3    11    1
    11     3    12    1
    12     5    13    1
@<TRIPOS>SUBSTRUCTURE
     1 RES1        1 GROUP             0 ****  ****    0  
