@<TRIPOS>MOLECULE
D-glucuronic_acid
    23    22     1     0     0
SMALL
NO_CHARGES
****
Generated from the CSD

@<TRIPOS>ATOM
     1 O1       1.3033   1.1226  -1.7138   O.2       1 RES1   0.0000
     2 C2       1.3966   1.9238  -0.8153   C.2       1 RES1   0.0000
     3 C3       1.0928   1.5742   0.6336   C.3       1 RES1   0.0000
     4 O4       2.2378   1.8746   1.4149   O.3       1 RES1   0.0000
     5 C5       0.7138   0.1262   0.9183   C.3       1 RES1   0.0000
     6 O6       0.9179  -0.0804   2.2996   O.3       1 RES1   0.0000
     7 C7      -0.7412  -0.2382   0.6545   C.3       1 RES1   0.0000
     8 O8      -0.9967  -1.4903   1.2455   O.3       1 RES1   0.0000
     9 C9      -1.2324  -0.3125  -0.7805   C.3       1 RES1   0.0000
    10 O10     -2.6338  -0.5390  -0.7246   O.3       1 RES1   0.0000
    11 C11     -0.7223  -1.4156  -1.6888   C.2       1 RES1   0.0000
    12 O12     -1.4295  -1.8827  -2.5494   O.2       1 RES1   0.0000
    13 O13      0.5297  -1.8334  -1.4591   O.3       1 RES1   0.0000
    14 H14      1.7128   2.9690  -1.0354   H         1 RES1   0.0000
    15 H15      0.2811   2.2530   0.9839   H         1 RES1   0.0000
    16 H16      2.1551   1.4410   2.2683   H         1 RES1   0.0000
    17 H17      1.4189  -0.5660   0.4097   H         1 RES1   0.0000
    18 H18      0.5579  -0.9384   2.5376   H         1 RES1   0.0000
    19 H19     -1.3817   0.4903   1.2090   H         1 RES1   0.0000
    20 H20     -1.9352  -1.6803   1.1666   H         1 RES1   0.0000
    21 H21     -1.0969   0.6602  -1.3022   H         1 RES1   0.0000
    22 H22     -2.8966  -0.9372  -1.5645   H         1 RES1   0.0000
    23 H23      0.7476  -2.5219  -2.1074   H         1 RES1   0.0000
@<TRIPOS>BOND
     1     1     2    2
     2     2     3    1
     3     2    14    1
     4     3     4    1
     5     3     5    1
     6     3    15    1
     7     4    16    1
     8     5     6    1
     9     5     7    1
    10     5    17    1
    11     6    18    1
    12     7     8    1
    13     7     9    1
    14     7    19    1
    15     8    20    1
    16     9    10    1
    17     9    11    1
    18     9    21    1
    19    10    22    1
    20    11    12    2
    21    11    13    1
    22    13    23    1
@<TRIPOS>SUBSTRUCTURE
     1 RES1        1 GROUP             0 ****  ****    0  
