@<TRIPOS>MOLECULE
D-pantothenol
    33    32     1     0     0
SMALL
NO_CHARGES
****
Generated from the CSD

@<TRIPOS>ATOM
     1 C1      -0.1974  -2.1233  -1.0860   C.3       1 RES1   0.0000
     2 C2       1.9493  -0.8924  -0.7659   C.3       1 RES1   0.0000
     3 C3       0.0443   0.2807  -1.9187   C.3       1 RES1   0.0000
     4 C4       0.7424  -1.0792  -1.7138   C.3       1 RES1   0.0000
     5 C5       1.2799  -1.6131  -3.0600   C.3       1 RES1   0.0000
     6 O6      -1.4801  -2.0667  -1.6802   O.3       1 RES1   0.0000
     7 O7      -0.8494   0.2202  -3.0181   O.3       1 RES1   0.0000
     8 C8      -0.7471   2.0040   1.4015   C.3       1 RES1   0.0000
     9 C9      -0.7750   0.7053  -0.7128   C.2       1 RES1   0.0000
    10 C10     -0.8567   1.4930   3.8830   C.3       1 RES1   0.0000
    11 O11     -0.4215   0.5880   4.8779   O.3       1 RES1   0.0000
    12 O12     -1.8834   0.2579  -0.5378   O.2       1 RES1   0.0000
    13 N13     -0.1497   1.5742   0.1354   N.am      1 RES1   0.0000
    14 C14     -0.3139   1.0540   2.5267   C.3       1 RES1   0.0000
    15 H15      0.1971  -3.1554  -1.2126   H         1 RES1   0.0000
    16 H16     -0.3456  -1.9494   0.0029   H         1 RES1   0.0000
    17 H17      1.6380  -0.5028   0.2292   H         1 RES1   0.0000
    18 H18      2.6915  -0.1767  -1.1863   H         1 RES1   0.0000
    19 H19      2.4784  -1.8562  -0.5888   H         1 RES1   0.0000
    20 H20      0.7856   1.0729  -2.1710   H         1 RES1   0.0000
    21 H21      0.4578  -1.8881  -3.7580   H         1 RES1   0.0000
    22 H22      1.9195  -0.8552  -3.5666   H         1 RES1   0.0000
    23 H23      1.8989  -2.5279  -2.9191   H         1 RES1   0.0000
    24 H24     -2.0266  -1.4569  -1.1721   H         1 RES1   0.0000
    25 H25     -1.5831  -0.3510  -2.7703   H         1 RES1   0.0000
    26 H26     -1.8574   2.0560   1.3256   H         1 RES1   0.0000
    27 H27     -0.3815   3.0347   1.6183   H         1 RES1   0.0000
    28 H28     -1.9695   1.4970   3.8963   H         1 RES1   0.0000
    29 H29     -0.4837   2.5033   4.1644   H         1 RES1   0.0000
    30 H30     -0.7756   0.8535   5.7301   H         1 RES1   0.0000
    31 H31      0.8050   1.8611  -0.0816   H         1 RES1   0.0000
    32 H32     -0.6752   0.0224   2.2988   H         1 RES1   0.0000
    33 H33      0.8011   1.0142   2.5690   H         1 RES1   0.0000
@<TRIPOS>BOND
     1     4     1    1
     2     1     6    1
     3     1    15    1
     4     1    16    1
     5     2     4    1
     6     2    17    1
     7     2    18    1
     8     2    19    1
     9     4     3    1
    10     3     7    1
    11     3     9    1
    12     3    20    1
    13     4     5    1
    14     5    21    1
    15     5    22    1
    16     5    23    1
    17     6    24    1
    18     7    25    1
    19    13     8    1
    20     8    14    1
    21     8    26    1
    22     8    27    1
    23     9    12    2
    24     9    13   am
    25    10    11    1
    26    14    10    1
    27    10    28    1
    28    10    29    1
    29    11    30    1
    30    13    31    1
    31    14    32    1
    32    14    33    1
@<TRIPOS>SUBSTRUCTURE
     1 RES1        1 GROUP             0 ****  ****    0  
