@<TRIPOS>MOLECULE
EDTA
    36    35     1     0     0
SMALL
NO_CHARGES
****
Generated from the CSD

@<TRIPOS>ATOM
     1 C1      -1.8574  -2.3286   1.6549   C.3       1 RES1   0.0000
     2 O2      -3.6066  -2.9589   0.1443   O.3       1 RES1   0.0000
     3 C3      -0.3881  -0.6131   0.8182   C.3       1 RES1   0.0000
     4 C4       0.1796   0.1330  -0.4103   C.3       1 RES1   0.0000
     5 C5      -2.9838  -3.2906   1.2966   C.2       1 RES1   0.0000
     6 O6      -3.2954  -4.2371   1.9845   O.2       1 RES1   0.0000
     7 N7      -1.2255  -1.7584   0.4731   N.3       1 RES1   0.0000
     8 N8       0.6740   1.4701  -0.0905   N.3       1 RES1   0.0000
     9 C9       0.8682   2.2540  -1.3096   C.3       1 RES1   0.0000
    10 C10      1.1791   3.7052  -0.9856   C.2       1 RES1   0.0000
    11 O11      0.4186   4.5019  -0.4890   O.2       1 RES1   0.0000
    12 O12      2.4602   4.0141  -1.2562   O.3       1 RES1   0.0000
    13 C13      1.8856   1.4377   0.7256   C.3       1 RES1   0.0000
    14 C14      1.9437   2.6415   1.6509   C.2       1 RES1   0.0000
    15 O15      2.7412   3.5472   1.6010   O.2       1 RES1   0.0000
    16 O16      0.9632   2.6031   2.5722   O.3       1 RES1   0.0000
    17 C17     -0.5073  -2.7639  -0.3036   C.3       1 RES1   0.0000
    18 C18     -0.8000  -2.5651  -1.7798   C.2       1 RES1   0.0000
    19 O19     -1.8883  -2.3261  -2.2468   O.2       1 RES1   0.0000
    20 O20      0.3006  -2.6806  -2.5418   O.3       1 RES1   0.0000
    21 H21     -2.3408  -1.5312   2.2684   H         1 RES1   0.0000
    22 H22     -1.1073  -2.8432   2.2997   H         1 RES1   0.0000
    23 H24     -1.0005   0.1291   1.3867   H         1 RES1   0.0000
    24 H25      0.4271  -0.9466   1.5007   H         1 RES1   0.0000
    25 H26      0.9842  -0.4615  -0.9025   H         1 RES1   0.0000
    26 H27     -0.6628   0.2178  -1.1392   H         1 RES1   0.0000
    27 H28      1.6529   1.8059  -1.9622   H         1 RES1   0.0000
    28 H29     -0.0728   2.2822  -1.9095   H         1 RES1   0.0000
    29 H30      2.6477   4.8880  -0.8779   H         1 RES1   0.0000
    30 H31      1.9252   0.5518   1.3969   H         1 RES1   0.0000
    31 H32      2.8048   1.3763   0.0999   H         1 RES1   0.0000
    32 H33      1.0151   3.4133   3.1043   H         1 RES1   0.0000
    33 H34      0.5818  -2.7733  -0.0748   H         1 RES1   0.0000
    34 H35     -0.8732  -3.7948  -0.0868   H         1 RES1   0.0000
    35 H36      0.0408  -2.5606  -3.4696   H         1 RES1   0.0000
    36 H       -2.9505  -2.9680  -0.6010   H         1 RES1   0.0000
@<TRIPOS>BOND
     1     5     1    1
     2     1     7    1
     3     1    21    1
     4     1    22    1
     5     2     5    1
     6     3     4    1
     7     7     3    1
     8     3    23    1
     9     3    24    1
    10     4     8    1
    11     4    25    1
    12     4    26    1
    13     5     6    2
    14     7    17    1
    15     8     9    1
    16     8    13    1
    17     9    10    1
    18     9    27    1
    19     9    28    1
    20    10    11    2
    21    10    12    1
    22    12    29    1
    23    13    14    1
    24    13    30    1
    25    13    31    1
    26    14    15    2
    27    14    16    1
    28    16    32    1
    29    17    18    1
    30    17    33    1
    31    17    34    1
    32    18    19    2
    33    18    20    1
    34    20    35    1
    35     2    36    1
@<TRIPOS>SUBSTRUCTURE
     1 RES1        1 GROUP             0 ****  ****    0  
