@<TRIPOS>MOLECULE
folic_acid
    51    53     1     0     0
SMALL
NO_CHARGES
****
Generated from the CSD

@<TRIPOS>ATOM
     1 C1       6.3561 -12.8814  -3.7465   C.2       1 RES1   0.0000
     2 C2       4.8973 -12.4733  -3.8392   C.3       1 RES1   0.0000
     3 C3       3.9378 -13.6705  -3.7452   C.3       1 RES1   0.0000
     4 C4       2.4439 -13.2850  -3.6790   C.3       1 RES1   0.0000
     5 C5       2.0447 -12.5105  -4.9291   C.2       1 RES1   0.0000
     6 O6       1.6910 -13.0005  -5.9751   O.2       1 RES1   0.0000
     7 O7       2.1166 -11.1789  -4.7531   O.3       1 RES1   0.0000
     8 N8       1.6704 -14.5335  -3.5786   N.am      1 RES1   0.0000
     9 C9       0.5857 -14.8047  -2.7884   C.2       1 RES1   0.0000
    10 O10      0.3743 -15.9858  -2.6322   O.2       1 RES1   0.0000
    11 C11     -0.1376 -13.9068  -2.0591   C.ar      1 RES1   0.0000
    12 C12     -0.8296 -14.3263  -0.9804   C.ar      1 RES1   0.0000
    13 C13     -1.5636 -13.4790  -0.2407   C.ar      1 RES1   0.0000
    14 C14     -0.2496 -12.6064  -2.3827   C.ar      1 RES1   0.0000
    15 C15     -0.9838 -11.7551  -1.6484   C.ar      1 RES1   0.0000
    16 C16     -1.6514 -12.1774  -0.5617   C.ar      1 RES1   0.0000
    17 N17     -2.3713 -11.4283   0.1727   N.pl3     1 RES1   0.0000
    18 C18     -2.6161  -9.9838  -0.0264   C.3       1 RES1   0.0000
    19 C19     -3.5749  -9.4321   1.0044   C.ar      1 RES1   0.0000
    20 N20     -4.3768 -10.2266   1.5759   N.ar      1 RES1   0.0000
    21 C21     -5.1917  -9.7723   2.4353   C.ar      1 RES1   0.0000
    22 C22     -6.0583 -10.6146   3.0596   C.2       1 RES1   0.0000
    23 O23     -6.1473 -11.8069   2.8871   O.2       1 RES1   0.0000
    24 N24     -6.8713  -9.9921   3.9468   N.am      1 RES1   0.0000
    25 C25     -6.8527  -8.6745   4.2095   C.2       1 RES1   0.0000
    26 N26     -7.6813  -8.2479   5.0650   N.pl3     1 RES1   0.0000
    27 N27     -6.0181  -7.9519   3.5926   N.2       1 RES1   0.0000
    28 C28     -5.2182  -8.4556   2.7447   C.ar      1 RES1   0.0000
    29 N29     -4.4151  -7.6557   2.1735   N.ar      1 RES1   0.0000
    30 C30     -3.6098  -8.1287   1.3229   C.ar      1 RES1   0.0000
    31 O31      7.1423 -12.5479  -2.8925   O.2       1 RES1   0.0000
    32 O32      6.7214 -13.6659  -4.7766   O.3       1 RES1   0.0000
    33 H33      4.6831 -11.7579  -3.0108   H         1 RES1   0.0000
    34 H34      4.7561 -11.9249  -4.7992   H         1 RES1   0.0000
    35 H35      4.0984 -14.3417  -4.6228   H         1 RES1   0.0000
    36 H36      4.1967 -14.2622  -2.8334   H         1 RES1   0.0000
    37 H37      2.3181 -12.6660  -2.7612   H         1 RES1   0.0000
    38 H38      1.8388 -10.7434  -5.5748   H         1 RES1   0.0000
    39 H39      2.0007 -15.3387  -4.1090   H         1 RES1   0.0000
    40 H40     -0.8100 -15.3813  -0.6570   H         1 RES1   0.0000
    41 H41     -2.1032 -13.8742   0.6381   H         1 RES1   0.0000
    42 H42      0.2114 -12.1944  -3.2884   H         1 RES1   0.0000
    43 H43     -1.0382 -10.7042  -1.9774   H         1 RES1   0.0000
    44 H44     -2.8415 -11.9019   0.9834   H         1 RES1   0.0000
    45 H45     -1.6466  -9.4376   0.0476   H         1 RES1   0.0000
    46 H46     -3.0671  -9.8071  -1.0310   H         1 RES1   0.0000
    47 H47     -7.5498 -10.5277   4.4613   H         1 RES1   0.0000
    48 H48     -8.3505  -8.8987   5.5446   H         1 RES1   0.0000
    49 H49     -7.7082  -7.2270   5.3059   H         1 RES1   0.0000
    50 H50     -2.9262  -7.4129   0.8380   H         1 RES1   0.0000
    51 H51      7.6659 -13.8706  -4.6828   H         1 RES1   0.0000
@<TRIPOS>BOND
     1     1     2    1
     2     1    31    2
     3     1    32    1
     4     2     3    1
     5     2    33    1
     6     2    34    1
     7     3     4    1
     8     3    35    1
     9     3    36    1
    10     4     5    1
    11     4     8    1
    12     4    37    1
    13     5     6    2
    14     5     7    1
    15     7    38    1
    16     8     9   am
    17     8    39    1
    18     9    10    2
    19     9    11    1
    20    11    12   ar
    21    11    14   ar
    22    12    13   ar
    23    12    40    1
    24    13    16   ar
    25    13    41    1
    26    15    14   ar
    27    14    42    1
    28    16    15   ar
    29    15    43    1
    30    16    17    1
    31    17    18    1
    32    17    44    1
    33    18    19    1
    34    18    45    1
    35    18    46    1
    36    19    20   ar
    37    19    30   ar
    38    21    20   ar
    39    22    21    1
    40    28    21   ar
    41    22    23    2
    42    24    22   am
    43    25    24    1
    44    24    47    1
    45    25    26    1
    46    27    25    2
    47    26    48    1
    48    26    49    1
    49    28    27    1
    50    29    28   ar
    51    30    29   ar
    52    30    50    1
    53    32    51    1
@<TRIPOS>SUBSTRUCTURE
     1 RES1        1 GROUP             0 ****  ****    0  
