@<TRIPOS>MOLECULE
fumaric_acid
    12    11     1     0     0
SMALL
NO_CHARGES
****
Generated from the CSD

@<TRIPOS>ATOM
     1 O1      -2.9194   0.3775   0.0931   O.3       1 RES1   0.0000
     2 C2      -1.7349  -0.2779   0.0440   C.2       1 RES1   0.0000
     3 O3      -1.7924  -1.4881   0.0183   O.2       1 RES1   0.0000
     4 C4      -0.5540   0.3990   0.0250   C.2       1 RES1   0.0000
     5 C5       0.6550  -0.1898  -0.0238   C.2       1 RES1   0.0000
     6 C6       1.8425   0.4768  -0.0433   C.2       1 RES1   0.0000
     7 O7       3.0000  -0.2317  -0.0938   O.3       1 RES1   0.0000
     8 O8       1.8890   1.6918  -0.0165   O.2       1 RES1   0.0000
     9 H       -3.6328  -0.2810   0.0989   H         1 RES1   0.0000
    10 H       -0.6399   1.4987   0.0527   H         1 RES1   0.0000
    11 H        0.7321  -1.2903  -0.0513   H         1 RES1   0.0000
    12 H        2.8044  -1.1821  -0.1111   H         1 RES1   0.0000
@<TRIPOS>BOND
     1     1     2    1
     2     1     9    1
     3     2     3    2
     4     2     4    1
     5     4     5    2
     6     4    10    1
     7     5     6    1
     8     5    11    1
     9     6     7    1
    10     6     8    2
    11     7    12    1
@<TRIPOS>SUBSTRUCTURE
     1 RES1        1 GROUP             0 A     ****    0  
