@<TRIPOS>MOLECULE
gentisic_acid
    17    17     1     0     0
SMALL
NO_CHARGES
****
Generated from the CSD

@<TRIPOS>ATOM
     1 C1      -1.2155  -0.0735   0.1118   C.ar      1 RES1   0.0000
     2 C2      -1.2616  -1.4161   0.0962   C.ar      1 RES1   0.0000
     3 C3      -0.0943  -2.0734   0.0782   C.ar      1 RES1   0.0000
     4 C4       1.0573  -1.3920   0.0776   C.ar      1 RES1   0.0000
     5 C5       1.0992  -0.0475   0.0905   C.ar      1 RES1   0.0000
     6 C6      -0.0674   0.6395   0.1076   C.ar      1 RES1   0.0000
     7 O7      -2.4493  -2.0800   0.0998   O.3       1 RES1   0.0000
     8 C8      -0.1315   2.0110   0.1234   C.2       1 RES1   0.0000
     9 O9       0.9518   2.8338   0.1013   O.3       1 RES1   0.0000
    10 O10     -1.2116   2.5740   0.1744   O.2       1 RES1   0.0000
    11 O11      2.3305   0.5242   0.0989   O.3       1 RES1   0.0000
    12 H       -2.2062   0.4101   0.1256   H         1 RES1   0.0000
    13 H       -0.0863  -3.1760   0.0669   H         1 RES1   0.0000
    14 H        2.0038  -1.9596   0.0678   H         1 RES1   0.0000
    15 H       -3.1756  -1.4359   0.1179   H         1 RES1   0.0000
    16 H        1.7952   2.4186  -0.1019   H         1 RES1   0.0000
    17 H        3.0331  -0.1438   0.1140   H         1 RES1   0.0000
@<TRIPOS>BOND
     1     1     2   ar
     2     1     6   ar
     3     1    12    1
     4     2     3   ar
     5     2     7    1
     6     3     4   ar
     7     3    13    1
     8     4     5   ar
     9     4    14    1
    10     5     6   ar
    11     5    11    1
    12     6     8    1
    13     7    15    1
    14     8     9    1
    15     8    10    2
    16     9    16    1
    17    11    17    1
@<TRIPOS>SUBSTRUCTURE
     1 RES1        1 GROUP             0 A     ****    0  
