@<TRIPOS>MOLECULE
glutaric_acid
    17    16     1     0     0
SMALL
NO_CHARGES
****
Generated from the CSD

@<TRIPOS>ATOM
     1 O1      -3.5897  -0.4810   0.0275   O.3       1 RES1   0.0000
     2 C2      -2.5212   0.3411   0.0395   C.2       1 RES1   0.0000
     3 O3      -2.6513   1.5413   0.0472   O.2       1 RES1   0.0000
     4 C4      -1.2248  -0.4488   0.0412   C.3       1 RES1   0.0000
     5 C5       0.0373   0.4287   0.0772   C.3       1 RES1   0.0000
     6 C6       1.3216  -0.4172   0.0750   C.3       1 RES1   0.0000
     7 C7       2.6026   0.3999   0.1106   C.2       1 RES1   0.0000
     8 O8       2.6734   1.6082   0.1587   O.2       1 RES1   0.0000
     9 O9       3.6738  -0.4236   0.0808   O.3       1 RES1   0.0000
    10 H       -4.3938   0.0638   0.0265   H         1 RES1   0.0000
    11 H       -1.2067  -1.0847  -0.8754   H         1 RES1   0.0000
    12 H       -1.2305  -1.1229   0.9304   H         1 RES1   0.0000
    13 H        0.0159   1.0664   0.9935   H         1 RES1   0.0000
    14 H        0.0406   1.1064  -0.8101   H         1 RES1   0.0000
    15 H        1.3420  -1.0517  -0.8427   H         1 RES1   0.0000
    16 H        1.3199  -1.0924   0.9633   H         1 RES1   0.0000
    17 H        3.4013  -1.3542   0.0427   H         1 RES1   0.0000
@<TRIPOS>BOND
     1     1     2    1
     2     1    10    1
     3     2     3    2
     4     2     4    1
     5     4     5    1
     6     4    11    1
     7     4    12    1
     8     5     6    1
     9     5    13    1
    10     5    14    1
    11     6     7    1
    12     6    15    1
    13     6    16    1
    14     7     8    2
    15     7     9    1
    16     9    17    1
@<TRIPOS>SUBSTRUCTURE
     1 RES1        1 GROUP             0 A     ****    0  
