@<TRIPOS>MOLECULE
glycolic_acid
     9     8     1     0     0
SMALL
NO_CHARGES
****
Generated from the CSD

@<TRIPOS>ATOM
     1 O1      -1.7254  -0.4456  -0.1260   O.3       1 RES1   0.0000
     2 C2      -0.5849   0.2568  -0.0063   C.2       1 RES1   0.0000
     3 O3      -0.5439   1.4619   0.0444   O.2       1 RES1   0.0000
     4 C4       0.6442  -0.6213   0.0609   C.3       1 RES1   0.0000
     5 O5       1.7928   0.2224   0.0309   O.3       1 RES1   0.0000
     6 H       -2.4710   0.1754  -0.1633   H         1 RES1   0.0000
     7 H        0.6928  -1.3100  -0.8110   H         1 RES1   0.0000
     8 H        0.6550  -1.1936   1.0147   H         1 RES1   0.0000
     9 H        1.5029   1.1370   0.1331   H         1 RES1   0.0000
@<TRIPOS>BOND
     1     1     2    1
     2     1     6    1
     3     2     3    2
     4     2     4    1
     5     4     5    1
     6     4     7    1
     7     4     8    1
     8     5     9    1
@<TRIPOS>SUBSTRUCTURE
     1 RES1        1 GROUP             0 A     ****    0  
