@<TRIPOS>MOLECULE
glycine
    10     9     1     0     0
SMALL
NO_CHARGES
****
Generated from the CSD

@<TRIPOS>ATOM
     1 C1      -0.6197   0.5041  -0.5076   C.2       1 RES1   0.0000
     2 N2       0.7556  -0.1995   1.3763   N.3       1 RES1   0.0000
     3 C3       0.3146  -0.5610   0.0221   C.3       1 RES1   0.0000
     4 O4      -0.6243   1.6704  -0.1942   O.2       1 RES1   0.0000
     5 O5      -1.4708   0.0139  -1.4276   O.3       1 RES1   0.0000
     6 H6       1.5658  -0.7761   1.6623   H         1 RES1   0.0000
     7 H7       1.0942   0.7785   1.3980   H         1 RES1   0.0000
     8 H8       1.2010  -0.6189  -0.6501   H         1 RES1   0.0000
     9 H9      -0.1837  -1.5573   0.0513   H         1 RES1   0.0000
    10 H10     -2.0329   0.7458  -1.7302   H         1 RES1   0.0000
@<TRIPOS>BOND
     1     1     3    1
     2     1     4    2
     3     1     5    1
     4     2     3    1
     5     2     6    1
     6     2     7    1
     7     3     8    1
     8     3     9    1
     9     5    10    1
@<TRIPOS>SUBSTRUCTURE
     1 RES1        1 GROUP             0 ****  ****    0  
