@<TRIPOS>MOLECULE
hesperetin
    36    38     1     0     0
SMALL
NO_CHARGES
****
Generated from the CSD

@<TRIPOS>ATOM
     1 C1       1.6654  -0.3600  -5.2680   C.3       1 RES1   0.0000
     2 O2       0.6426  -0.5196  -4.3132   O.3       1 RES1   0.0000
     3 C3       0.8931  -0.1710  -3.0077   C.ar      1 RES1   0.0000
     4 C4       1.9969   0.4683  -2.5754   C.ar      1 RES1   0.0000
     5 C5       2.1860   0.7682  -1.2818   C.ar      1 RES1   0.0000
     6 C6       1.2817   0.4332  -0.3457   C.ar      1 RES1   0.0000
     7 C7       0.1911  -0.2204  -0.7798   C.ar      1 RES1   0.0000
     8 C8      -0.0141  -0.5232  -2.0730   C.ar      1 RES1   0.0000
     9 O9      -1.1421  -1.1871  -2.4511   O.3       1 RES1   0.0000
    10 C10      1.5205   0.7856   1.1185   C.3       1 RES1   0.0000
    11 C11      1.7752  -0.4118   2.0209   C.3       1 RES1   0.0000
    12 C12      0.4992  -1.1239   2.4308   C.2       1 RES1   0.0000
    13 O13      0.5980  -2.2923   2.7349   O.2       1 RES1   0.0000
    14 C14     -0.6585  -0.4053   2.4445   C.ar      1 RES1   0.0000
    15 C15     -1.8174  -0.9953   2.8134   C.ar      1 RES1   0.0000
    16 O16     -1.9138  -2.3041   3.1822   O.3       1 RES1   0.0000
    17 C17     -2.9427  -0.2611   2.8051   C.ar      1 RES1   0.0000
    18 C18     -2.9598   1.0304   2.4491   C.ar      1 RES1   0.0000
    19 O19     -4.1101   1.7555   2.4320   O.3       1 RES1   0.0000
    20 C20     -1.7901   1.5769   2.0911   C.ar      1 RES1   0.0000
    21 C21     -0.6267   0.9003   2.0917   C.ar      1 RES1   0.0000
    22 O22      0.4931   1.5669   1.6662   O.3       1 RES1   0.0000
    23 H23      1.2925  -0.7637  -6.2362   H         1 RES1   0.0000
    24 H24      2.5651  -0.9430  -4.9698   H         1 RES1   0.0000
    25 H25      1.8981   0.7188  -5.4102   H         1 RES1   0.0000
    26 H26      2.7873   0.7741  -3.2788   H         1 RES1   0.0000
    27 H27      3.1092   1.2985  -0.9941   H         1 RES1   0.0000
    28 H28     -0.5874  -0.5359  -0.0715   H         1 RES1   0.0000
    29 H29     -1.1186  -1.3314  -3.4111   H         1 RES1   0.0000
    30 H30      2.4317   1.4339   1.1636   H         1 RES1   0.0000
    31 H31      2.4735  -1.1210   1.5178   H         1 RES1   0.0000
    32 H32      2.2654  -0.0796   2.9683   H         1 RES1   0.0000
    33 H33     -2.8432  -2.5152   3.3670   H         1 RES1   0.0000
    34 H34     -3.8948  -0.7367   3.0951   H         1 RES1   0.0000
    35 H35     -3.9150   2.6515   2.1130   H         1 RES1   0.0000
    36 H36     -1.7871   2.6344   1.7764   H         1 RES1   0.0000
@<TRIPOS>BOND
     1     1     2    1
     2     1    23    1
     3     1    24    1
     4     1    25    1
     5     2     3    1
     6     3     4   ar
     7     3     8   ar
     8     4     5   ar
     9     4    26    1
    10     5     6   ar
    11     5    27    1
    12     6     7   ar
    13    10     6    1
    14     7     8   ar
    15     7    28    1
    16     8     9    1
    17     9    29    1
    18    10    11    1
    19    10    22    1
    20    10    30    1
    21    11    12    1
    22    11    31    1
    23    11    32    1
    24    12    13    2
    25    12    14    1
    26    14    15   ar
    27    14    21   ar
    28    15    16    1
    29    15    17   ar
    30    16    33    1
    31    17    18   ar
    32    17    34    1
    33    18    19    1
    34    18    20   ar
    35    19    35    1
    36    20    21   ar
    37    20    36    1
    38    21    22    1
@<TRIPOS>SUBSTRUCTURE
     1 RES1        1 GROUP             0 ****  ****    0  
