@<TRIPOS>MOLECULE
hippuric_acid
    22    22     1     0     0
SMALL
NO_CHARGES
****
Generated from the CSD

@<TRIPOS>ATOM
     1 C1      -3.0180   3.4521   1.2233   C.2       1 RES1   0.0000
     2 C2      -3.4547   2.5271   2.3491   C.3       1 RES1   0.0000
     3 C3      -5.5547   3.6422   3.0624   C.2       1 RES1   0.0000
     4 C4      -6.9168   3.5687   3.1330   C.ar      1 RES1   0.0000
     5 C5      -7.6181   4.5950   3.6569   C.ar      1 RES1   0.0000
     6 C6      -8.9575   4.5570   3.7416   C.ar      1 RES1   0.0000
     7 C7      -9.6301   3.4847   3.3015   C.ar      1 RES1   0.0000
     8 C8      -8.9501   2.4550   2.7782   C.ar      1 RES1   0.0000
     9 C9      -7.6104   2.4977   2.6956   C.ar      1 RES1   0.0000
    10 H1      -1.5134   4.4422   0.6345   H         1 RES1   0.0000
    11 H2      -3.1615   1.4881   2.0728   H         1 RES1   0.0000
    12 H3      -2.9502   2.7813   3.3089   H         1 RES1   0.0000
    13 H4      -5.4610   1.7943   2.1428   H         1 RES1   0.0000
    14 H5      -7.1246   5.5056   4.0361   H         1 RES1   0.0000
    15 H6      -9.5096   5.4088   4.1739   H         1 RES1   0.0000
    16 H7     -10.7301   3.4498   3.3696   H         1 RES1   0.0000
    17 H8      -9.4990   1.5693   2.4150   H         1 RES1   0.0000
    18 H9      -7.1290   1.6112   2.2545   H         1 RES1   0.0000
    19 N1      -4.9129   2.5700   2.5046   N.am      1 RES1   0.0000
    20 O1      -1.7333   3.8324   1.3574   O.3       1 RES1   0.0000
    21 O2      -3.7064   3.8178   0.3007   O.2       1 RES1   0.0000
    22 O3      -4.9037   4.5843   3.4511   O.2       1 RES1   0.0000
@<TRIPOS>BOND
     1     1     2    1
     2     1    20    1
     3     1    21    2
     4     2    11    1
     5     2    12    1
     6     2    19    1
     7     3     4    1
     8     3    19   am
     9     3    22    2
    10     4     5   ar
    11     4     9   ar
    12     5     6   ar
    13     5    14    1
    14     6     7   ar
    15     6    15    1
    16     7     8   ar
    17     7    16    1
    18     8     9   ar
    19     8    17    1
    20     9    18    1
    21    10    20    1
    22    13    19    1
@<TRIPOS>SUBSTRUCTURE
     1 RES1        1 GROUP             0 A     ****    0  
