@<TRIPOS>MOLECULE
hydrocinnamic_acid
    21    21     1     0     0
SMALL
NO_CHARGES
****
Generated from the CSD

@<TRIPOS>ATOM
     1 C1       2.4627  -1.1934  -7.4059   C.2       1 RES1   0.0000
     2 C2       1.6600  -0.5605  -6.3019   C.3       1 RES1   0.0000
     3 H2A      0.8041  -0.2239  -6.6700   H         1 RES1   0.0000
     4 H2B      2.1597   0.2117  -5.9342   H         1 RES1   0.0000
     5 C3       1.3713  -1.5635  -5.1752   C.3       1 RES1   0.0000
     6 H3A      2.2268  -1.9385  -4.8470   H         1 RES1   0.0000
     7 H3B      0.9376  -1.0894  -4.4211   H         1 RES1   0.0000
     8 C4       0.4720  -2.6984  -5.6340   C.ar      1 RES1   0.0000
     9 C5      -0.9082  -2.5428  -5.5603   C.ar      1 RES1   0.0000
    10 H5      -1.2757  -1.7404  -5.2066   H         1 RES1   0.0000
    11 C6      -1.7532  -3.5540  -6.0006   C.ar      1 RES1   0.0000
    12 H6      -2.6947  -3.4435  -5.9391   H         1 RES1   0.0000
    13 C7      -1.2310  -4.7176  -6.5264   C.ar      1 RES1   0.0000
    14 H7      -1.8106  -5.4021  -6.8373   H         1 RES1   0.0000
    15 C8       0.1384  -4.8846  -6.5982   C.ar      1 RES1   0.0000
    16 H8       0.5026  -5.6854  -6.9567   H         1 RES1   0.0000
    17 C9       0.9846  -3.8767  -6.1435   C.ar      1 RES1   0.0000
    18 H9       1.9258  -4.0003  -6.1844   H         1 RES1   0.0000
    19 O1       1.9763  -0.9216  -8.6207   O.3       1 RES1   0.0000
    20 H1       2.4233  -1.3334  -9.2005   H         1 RES1   0.0000
    21 O2       3.4422  -1.8714  -7.2238   O.2       1 RES1   0.0000
@<TRIPOS>BOND
     1     1     2    1
     2     1    19    1
     3     1    21    2
     4     2     3    1
     5     2     4    1
     6     2     5    1
     7     5     6    1
     8     5     7    1
     9     5     8    1
    10     8     9   ar
    11     8    17   ar
    12     9    10    1
    13     9    11   ar
    14    11    12    1
    15    11    13   ar
    16    13    14    1
    17    13    15   ar
    18    15    16    1
    19    15    17   ar
    20    17    18    1
    21    19    20    1
@<TRIPOS>SUBSTRUCTURE
     1 RES1        1 GROUP             0 A     ****    0  
