@<TRIPOS>MOLECULE
imidazole
     9     9     1     0     0
SMALL
NO_CHARGES
****
Generated from the CSD

@<TRIPOS>ATOM
     1 C1      -0.7847   0.7196  -0.5944   C.2       1 RES1   0.0000
     2 N2      -0.1789   1.3633   0.3922   N.2       1 RES1   0.0000
     3 C3       0.6526   0.4441   0.9521   C.2       1 RES1   0.0000
     4 C4       0.5575  -0.7695   0.3086   C.2       1 RES1   0.0000
     5 N5      -0.3763  -0.5707  -0.6874   N.pl3     1 RES1   0.0000
     6 H6      -1.5312   1.1401  -1.2761   H         1 RES1   0.0000
     7 H7       1.3012   0.6756   1.8062   H         1 RES1   0.0000
     8 H8       1.0655  -1.7225   0.4797   H         1 RES1   0.0000
     9 H9      -0.7058  -1.2803  -1.3806   H         1 RES1   0.0000
@<TRIPOS>BOND
     1     1     2    2
     2     1     5    1
     3     1     6    1
     4     2     3    1
     5     3     4    2
     6     3     7    1
     7     4     5    1
     8     4     8    1
     9     5     9    1
@<TRIPOS>SUBSTRUCTURE
     1 RES1        1 GROUP             0 ****  ****    0  
