@<TRIPOS>MOLECULE
isonicotinamide
    15    15     1     0     0
SMALL
NO_CHARGES
****
Generated from the CSD

@<TRIPOS>ATOM
     1 C1       1.4793   0.7041  -0.1836   C.2       1 RES1   0.0000
     2 C2       0.3435  -0.0254  -0.0185   C.ar      1 RES1   0.0000
     3 C3      -0.8856   0.5232   0.0125   C.ar      1 RES1   0.0000
     4 C4      -1.9490  -0.2809   0.1791   C.ar      1 RES1   0.0000
     5 N5      -1.8787  -1.5374   0.3107   N.ar      1 RES1   0.0000
     6 C6      -0.7266  -2.0592   0.2842   C.ar      1 RES1   0.0000
     7 C7       0.4106  -1.3624   0.1245   C.ar      1 RES1   0.0000
     8 O8       2.5899   0.2313  -0.2072   O.2       1 RES1   0.0000
     9 N9       1.3454   2.0468  -0.3384   N.am      1 RES1   0.0000
    10 H10     -1.0705   1.6035  -0.0916   H         1 RES1   0.0000
    11 H11     -2.9652   0.1495   0.2070   H         1 RES1   0.0000
    12 H12     -0.6888  -3.1559   0.4018   H         1 RES1   0.0000
    13 H13      1.3689  -1.9077   0.1143   H         1 RES1   0.0000
    14 H14      2.1895   2.5855  -0.4625   H         1 RES1   0.0000
    15 H15      0.4369   2.4845  -0.3325   H         1 RES1   0.0000
@<TRIPOS>BOND
     1     1     2    1
     2     1     8    2
     3     1     9   am
     4     2     3   ar
     5     2     7   ar
     6     3     4   ar
     7     3    10    1
     8     4     5   ar
     9     4    11    1
    10     5     6   ar
    11     6     7   ar
    12     6    12    1
    13     7    13    1
    14     9    14    1
    15     9    15    1
@<TRIPOS>SUBSTRUCTURE
     1 RES1        1 GROUP             0 ****  ****    0  
