@<TRIPOS>MOLECULE
ketoglutaric_acid
    16    15     1     0     0
SMALL
NO_CHARGES
****
Generated from the CSD

@<TRIPOS>ATOM
     1 O1      -3.6676  -0.4239   0.0319   O.3       1 RES1   0.0000
     2 C2      -2.4859   0.2394   0.0511   C.2       1 RES1   0.0000
     3 O3      -2.5568   1.4519   0.0558   O.2       1 RES1   0.0000
     4 C4      -1.2924  -0.4093   0.0643   C.2       1 RES1   0.0000
     5 O5      -1.2255  -1.6225   0.0595   O.2       1 RES1   0.0000
     6 C6      -0.0110   0.4249   0.0854   C.3       1 RES1   0.0000
     7 C7       1.2858  -0.4072   0.0896   C.3       1 RES1   0.0000
     8 C8       2.5565   0.4266   0.1091   C.2       1 RES1   0.0000
     9 O9       3.6411  -0.3788   0.0964   O.3       1 RES1   0.0000
    10 O10      2.6000   1.6365   0.1325   O.2       1 RES1   0.0000
    11 H       -4.3918   0.2231   0.0245   H         1 RES1   0.0000
    12 H       -0.0278   1.0659   0.9994   H         1 RES1   0.0000
    13 H       -0.0087   1.0844  -0.8154   H         1 RES1   0.0000
    14 H        1.3175  -1.0501  -0.8223   H         1 RES1   0.0000
    15 H        1.3020  -1.0670   0.9898   H         1 RES1   0.0000
    16 H        3.3863  -1.3149   0.0782   H         1 RES1   0.0000
@<TRIPOS>BOND
     1     1     2    1
     2     1    11    1
     3     2     3    2
     4     2     4    1
     5     4     5    2
     6     4     6    1
     7     6     7    1
     8     6    12    1
     9     6    13    1
    10     7     8    1
    11     7    14    1
    12     7    15    1
    13     8     9    1
    14     8    10    2
    15     9    16    1
@<TRIPOS>SUBSTRUCTURE
     1 RES1        1 GROUP             0 A     ****    0  
