@<TRIPOS>MOLECULE
L-arginine
    26    25     1     0     0
SMALL
NO_CHARGES
****
Generated from the CSD

@<TRIPOS>ATOM
     1 C1      -1.7021   2.9732  -1.3182   C.2       1 RES1   0.0000
     2 N2       0.6905   3.2280  -1.6538   N.3       1 RES1   0.0000
     3 C3      -0.3802   2.2395  -1.4438   C.3       1 RES1   0.0000
     4 C4      -0.0894   1.3887  -0.1917   C.3       1 RES1   0.0000
     5 C5       0.1509  -0.0913  -0.5321   C.3       1 RES1   0.0000
     6 C6       0.3994  -0.9443   0.7206   C.3       1 RES1   0.0000
     7 N7       0.6038  -2.3579   0.3432   N.pl3     1 RES1   0.0000
     8 C8       0.7654  -3.3898   1.2549   C.2       1 RES1   0.0000
     9 N9       0.9268  -4.6238   0.8482   N.2       1 RES1   0.0000
    10 N10      0.7626  -3.0982   2.6068   N.pl3     1 RES1   0.0000
    11 O11     -1.8677   4.0676  -0.8351   O.2       1 RES1   0.0000
    12 O12     -2.7311   2.2390  -1.7801   O.3       1 RES1   0.0000
    13 H13      1.6213   2.7847  -1.5671   H         1 RES1   0.0000
    14 H14      0.6621   3.9530  -0.9154   H         1 RES1   0.0000
    15 H15     -0.4146   1.6003  -2.3580   H         1 RES1   0.0000
    16 H16      0.7984   1.7892   0.3519   H         1 RES1   0.0000
    17 H17     -0.9456   1.4569   0.5202   H         1 RES1   0.0000
    18 H18     -0.7408  -0.4932  -1.0707   H         1 RES1   0.0000
    19 H19      1.0272  -0.1777  -1.2181   H         1 RES1   0.0000
    20 H20      1.3030  -0.5737   1.2587   H         1 RES1   0.0000
    21 H21     -0.4773  -0.8691   1.4056   H         1 RES1   0.0000
    22 H22      0.6178  -2.6240  -0.6728   H         1 RES1   0.0000
    23 H23      1.0361  -5.2616   1.6389   H         1 RES1   0.0000
    24 H24      0.8887  -3.8591   3.3189   H         1 RES1   0.0000
    25 H25      0.6366  -2.1127   2.9436   H         1 RES1   0.0000
    26 H26     -3.5428   2.7573  -1.6538   H         1 RES1   0.0000
@<TRIPOS>BOND
     1     1     3    1
     2     1    11    2
     3     1    12    1
     4     2     3    1
     5     2    13    1
     6     2    14    1
     7     3     4    1
     8     3    15    1
     9     4     5    1
    10     4    16    1
    11     4    17    1
    12     5     6    1
    13     5    18    1
    14     5    19    1
    15     6     7    1
    16     6    20    1
    17     6    21    1
    18     7     8    1
    19     7    22    1
    20     8     9    2
    21     8    10    1
    22     9    23    1
    23    10    24    1
    24    10    25    1
    25    12    26    1
@<TRIPOS>SUBSTRUCTURE
     1 RES1        1 GROUP             0 ****  ****    0  
