@<TRIPOS>MOLECULE
L-aspartic_acid
    16    15     1     0     0
SMALL
NO_CHARGES
****
Generated from the CSD

@<TRIPOS>ATOM
     1 C1      -2.7797   0.3000  -0.4628   C.2       1 RES1   0.0000
     2 N2      -3.1201  -1.9985   0.2065   N.3       1 RES1   0.0000
     3 C3      -3.8201  -0.7814  -0.2335   C.3       1 RES1   0.0000
     4 C4      -4.9452  -0.4573   0.7666   C.3       1 RES1   0.0000
     5 C5      -5.8012   0.7577   0.4539   C.2       1 RES1   0.0000
     6 O6      -6.4101   1.4280   1.2532   O.2       1 RES1   0.0000
     7 O7      -5.8396   1.0299  -0.8645   O.3       1 RES1   0.0000
     8 O8      -1.8688   0.2318  -1.2528   O.2       1 RES1   0.0000
     9 O9      -2.9569   1.3798   0.3207   O.3       1 RES1   0.0000
    10 H10     -3.7687  -2.8027   0.2567   H         1 RES1   0.0000
    11 H11     -2.4012  -2.2739  -0.4858   H         1 RES1   0.0000
    12 H12     -4.2655  -1.0102  -1.2319   H         1 RES1   0.0000
    13 H13     -5.6410  -1.3278   0.8298   H         1 RES1   0.0000
    14 H14     -4.5079  -0.3212   1.7838   H         1 RES1   0.0000
    15 H15     -6.3967   1.8132  -1.0007   H         1 RES1   0.0000
    16 H16     -2.2528   2.0202   0.1302   H         1 RES1   0.0000
@<TRIPOS>BOND
     1     1     3    1
     2     1     8    2
     3     1     9    1
     4     3     2    1
     5     2    10    1
     6     2    11    1
     7     3     4    1
     8     3    12    1
     9     4     5    1
    10     4    13    1
    11     4    14    1
    12     5     6    2
    13     5     7    1
    14     7    15    1
    15     9    16    1
@<TRIPOS>SUBSTRUCTURE
     1 RES1        1 GROUP             0 ****  ****    0  
