@<TRIPOS>MOLECULE
L-aspartic_acid_z
    16    15     1     0     0
SMALL
NO_CHARGES
****
Generated from the CSD

@<TRIPOS>ATOM
     1 C1       1.4146   1.0593  -0.6613   C.2       1 RES1   0.0000
     2 N2       1.0280  -1.3644  -0.5407   N.4       1 RES1   0.0000
     3 C3       0.3804  -0.0157  -0.4334   C.3       1 RES1   0.0000
     4 C4      -0.2232   0.1479   0.9553   C.3       1 RES1   0.0000
     5 C5      -1.7100   0.3759   0.8347   C.2       1 RES1   0.0000
     6 O6      -2.3799   0.5303   1.8280   O.2       1 RES1   0.0000
     7 O7      -2.2863   0.4070  -0.3725   O.3       1 RES1   0.0000
     8 O8       2.6015   0.7450  -0.8958   O.co2     1 RES1   0.0000
     9 O9       1.0844   2.2640  -0.6157   O.co2     1 RES1   0.0000
    10 H10      0.5762  -1.9081  -1.3103   H         1 RES1   0.0000
    11 H11      2.0452  -1.2462  -0.7490   H         1 RES1   0.0000
    12 H12      0.9139  -1.8782   0.3621   H         1 RES1   0.0000
    13 H13     -0.4215   0.0727  -1.2002   H         1 RES1   0.0000
    14 H14     -0.0368  -0.7736   1.5511   H         1 RES1   0.0000
    15 H15      0.2458   1.0202   1.4631   H         1 RES1   0.0000
    16 H16     -3.2326   0.5637  -0.2154   H         1 RES1   0.0000
@<TRIPOS>BOND
     1     1     3    1
     2     1     8    2
     3     1     9    1
     4     3     2    1
     5     2    10    1
     6     2    11    1
     7     2    12    1
     8     3     4    1
     9     3    13    1
    10     4     5    1
    11     4    14    1
    12     4    15    1
    13     5     6    2
    14     5     7    1
    15     7    16    1
@<TRIPOS>SUBSTRUCTURE
     1 RES1        1 GROUP             0 ****  ****    0  
