@<TRIPOS>MOLECULE
L-glutamine
    20    19     1     0     0
SMALL
NO_CHARGES
****
Generated from the CSD

@<TRIPOS>ATOM
     1 C1       2.1256  -0.2186  -0.2060   C.2       1 RES1   0.0000
     2 N2       1.3056  -1.8367   1.4232   N.3       1 RES1   0.0000
     3 C3       0.9921  -1.1579   0.1548   C.3       1 RES1   0.0000
     4 C4      -0.3632  -0.4402   0.2639   C.3       1 RES1   0.0000
     5 C5      -0.8024   0.2045  -1.0601   C.3       1 RES1   0.0000
     6 C6      -2.1737   0.8493  -0.9602   C.2       1 RES1   0.0000
     7 O7      -3.1522   0.4653  -1.5513   O.2       1 RES1   0.0000
     8 N8      -2.2385   1.9333  -0.1401   N.am      1 RES1   0.0000
     9 O9       2.6826  -0.1303  -1.2736   O.2       1 RES1   0.0000
    10 O10      2.4727   0.5576   0.8371   O.3       1 RES1   0.0000
    11 H11      0.5442  -2.4847   1.6887   H         1 RES1   0.0000
    12 H12      1.3631  -1.1507   2.1963   H         1 RES1   0.0000
    13 H13      0.9332  -1.9400  -0.6400   H         1 RES1   0.0000
    14 H14     -1.1399  -1.1784   0.5788   H         1 RES1   0.0000
    15 H15     -0.3074   0.3346   1.0644   H         1 RES1   0.0000
    16 H16     -0.0729   0.9842  -1.3805   H         1 RES1   0.0000
    17 H17     -0.8327  -0.5710  -1.8613   H         1 RES1   0.0000
    18 H18     -3.1300   2.3987  -0.0465   H         1 RES1   0.0000
    19 H19     -1.4223   2.2631   0.3556   H         1 RES1   0.0000
    20 H20      3.2153   1.1171   0.5577   H         1 RES1   0.0000
@<TRIPOS>BOND
     1     1     3    1
     2     1     9    2
     3     1    10    1
     4     2     3    1
     5     2    11    1
     6     2    12    1
     7     3     4    1
     8     3    13    1
     9     4     5    1
    10     4    14    1
    11     4    15    1
    12     5     6    1
    13     5    16    1
    14     5    17    1
    15     6     7    2
    16     6     8   am
    17     8    18    1
    18     8    19    1
    19    10    20    1
@<TRIPOS>SUBSTRUCTURE
     1 RES1        1 GROUP             0 ****  ****    0  
