@<TRIPOS>MOLECULE
L-glutamic_acid_z
    19    18     1     0     0
SMALL
NO_CHARGES
****
Generated from the CSD

@<TRIPOS>ATOM
     1 C1       2.1224   0.4385  -0.8701   C.2       1 RES1   0.0000
     2 N2       1.0889  -1.7909  -0.8701   N.4       1 RES1   0.0000
     3 C3       0.8155  -0.3160  -0.8701   C.3       1 RES1   0.0000
     4 C4       0.0179   0.0518   0.3741   C.3       1 RES1   0.0000
     5 C5      -1.3135   0.6655  -0.0385   C.3       1 RES1   0.0000
     6 C6      -2.1038   1.0299   1.1943   C.2       1 RES1   0.0000
     7 O7      -3.1963   1.5335   1.0844   O.2       1 RES1   0.0000
     8 O8      -1.5945   0.7951   2.4091   O.3       1 RES1   0.0000
     9 O9       3.2049  -0.1865  -0.8701   O.co2     1 RES1   0.0000
    10 O10      2.1224   1.6885  -0.8701   O.co2     1 RES1   0.0000
    11 H11      0.6682  -2.2236  -1.7232   H         1 RES1   0.0000
    12 H12      2.1212  -1.9533  -0.8707   H         1 RES1   0.0000
    13 H13      0.6680  -2.2230  -0.0168   H         1 RES1   0.0000
    14 H14      0.2320  -0.0470  -1.7789   H         1 RES1   0.0000
    15 H15     -0.1679  -0.8638   0.9791   H         1 RES1   0.0000
    16 H16      0.5934   0.7872   0.9797   H         1 RES1   0.0000
    17 H17     -1.1277   1.5811  -0.6435   H         1 RES1   0.0000
    18 H18     -1.8890  -0.0699  -0.6441   H         1 RES1   0.0000
    19 H19     -2.2619   1.1028   3.0452   H         1 RES1   0.0000
@<TRIPOS>BOND
     1     1     3    1
     2     1     9    2
     3     1    10    1
     4     3     2    1
     5     2    11    1
     6     2    12    1
     7     2    13    1
     8     3     4    1
     9     3    14    1
    10     4     5    1
    11     4    15    1
    12     4    16    1
    13     5     6    1
    14     5    17    1
    15     5    18    1
    16     6     7    2
    17     6     8    1
    18     8    19    1
@<TRIPOS>SUBSTRUCTURE
     1 RES1        1 GROUP             0 ****  ****    0  
