@<TRIPOS>MOLECULE
L-glutathione
    37    36     1     0     0
SMALL
NO_CHARGES
****
Generated from the CSD

@<TRIPOS>ATOM
     1 O1      -0.8224  -3.8053  -1.6825   O.2       1 RES1   0.0000
     2 C2      -0.5892  -2.6253  -1.5777   C.2       1 RES1   0.0000
     3 N3      -1.6257  -1.7405  -1.4601   N.am      1 RES1   0.0000
     4 C4      -1.5253  -0.2804  -1.4344   C.3       1 RES1   0.0000
     5 C5      -2.9298   0.2531  -1.6492   C.2       1 RES1   0.0000
     6 O6      -2.9653   1.5933  -1.7274   O.3       1 RES1   0.0000
     7 O7      -3.9188  -0.4357  -1.7382   O.2       1 RES1   0.0000
     8 C8       0.8326  -2.0566  -1.5958   C.3       1 RES1   0.0000
     9 C9       1.9253  -3.1451  -1.6671   C.3       1 RES1   0.0000
    10 S10      2.0527  -3.9994  -0.0603   S.3       1 RES1   0.0000
    11 N11      1.0891  -1.1785  -0.4456   N.am      1 RES1   0.0000
    12 C12      1.7314   0.0258  -0.5559   C.2       1 RES1   0.0000
    13 C13      1.9624   0.7323   0.7709   C.3       1 RES1   0.0000
    14 C14      3.2056   1.6373   0.7728   C.3       1 RES1   0.0000
    15 C15      3.4080   2.3920   2.0987   C.3       1 RES1   0.0000
    16 N16      3.4730   1.4567   3.2332   N.3       1 RES1   0.0000
    17 C17      4.6555   3.2565   2.1005   C.2       1 RES1   0.0000
    18 O18      4.8393   3.8384   3.3011   O.3       1 RES1   0.0000
    19 O19      5.4225   3.4450   1.1870   O.2       1 RES1   0.0000
    20 O20      2.0782   0.4834  -1.6182   O.2       1 RES1   0.0000
    21 H21     -2.5659  -2.1402  -1.4460   H         1 RES1   0.0000
    22 H22     -1.1680   0.0676  -0.4388   H         1 RES1   0.0000
    23 H23     -0.8716   0.0940  -2.2544   H         1 RES1   0.0000
    24 H24     -3.8847   1.8710  -1.8698   H         1 RES1   0.0000
    25 H25      0.8826  -1.4805  -2.5523   H         1 RES1   0.0000
    26 H26      1.7136  -3.8678  -2.4887   H         1 RES1   0.0000
    27 H27      2.9067  -2.6681  -1.9011   H         1 RES1   0.0000
    28 H28      3.0252  -4.8533  -0.4259   H         1 RES1   0.0000
    29 H29      0.8565  -1.5238   0.4856   H         1 RES1   0.0000
    30 H30      2.0664  -0.0405   1.5682   H         1 RES1   0.0000
    31 H31      1.0510   1.3352   0.9948   H         1 RES1   0.0000
    32 H32      3.1210   2.3830  -0.0540   H         1 RES1   0.0000
    33 H33      4.1058   1.0096   0.5673   H         1 RES1   0.0000
    34 H34      2.5394   3.0729   2.2674   H         1 RES1   0.0000
    35 H35      3.6770   1.9680   4.1100   H         1 RES1   0.0000
    36 H36      2.5561   1.0064   3.3953   H         1 RES1   0.0000
    37 H37      5.6479   4.3737   3.2532   H         1 RES1   0.0000
@<TRIPOS>BOND
     1     1     2    2
     2     2     3   am
     3     2     8    1
     4     3     4    1
     5     3    21    1
     6     4     5    1
     7     4    22    1
     8     4    23    1
     9     5     6    1
    10     5     7    2
    11     6    24    1
    12     8     9    1
    13     8    11    1
    14     8    25    1
    15     9    10    1
    16     9    26    1
    17     9    27    1
    18    10    28    1
    19    11    12   am
    20    11    29    1
    21    12    13    1
    22    12    20    2
    23    13    14    1
    24    13    30    1
    25    13    31    1
    26    14    15    1
    27    14    32    1
    28    14    33    1
    29    15    16    1
    30    15    17    1
    31    15    34    1
    32    16    35    1
    33    16    36    1
    34    17    18    1
    35    17    19    2
    36    18    37    1
@<TRIPOS>SUBSTRUCTURE
     1 RES1        1 GROUP             0 ****  ****    0  
