@<TRIPOS>MOLECULE
L-glutamic_acid
    19    18     1     0     0
SMALL
NO_CHARGES
****
Generated from the CSD

@<TRIPOS>ATOM
     1 C1      -1.7924   0.2078  -0.8238   C.2       1 RES1   0.0000
     2 N2      -2.8372  -1.9606  -0.8238   N.3       1 RES1   0.0000
     3 C3      -3.0993  -0.5467  -0.8238   C.3       1 RES1   0.0000
     4 C4      -3.8969  -0.1790   0.4204   C.3       1 RES1   0.0000
     5 O5      -7.1111   1.3028   1.1306   O.2       1 RES1   0.0000
     6 O6      -5.5093   0.5644   2.4553   O.3       1 RES1   0.0000
     7 C7      -5.2283   0.4348   0.0077   C.3       1 RES1   0.0000
     8 C8      -6.0186   0.7992   1.2405   C.2       1 RES1   0.0000
     9 O9      -0.7463  -0.3962  -0.8238   O.2       1 RES1   0.0000
    10 O10     -1.7924   1.5458  -0.8238   O.3       1 RES1   0.0000
    11 H11     -3.7208  -2.4701  -0.8238   H         1 RES1   0.0000
    12 H12     -2.3907  -2.2236  -1.7024   H         1 RES1   0.0000
    13 H13     -3.6828  -0.2777  -1.7327   H         1 RES1   0.0000
    14 H14     -4.0827  -1.0945   1.0253   H         1 RES1   0.0000
    15 H15     -3.3214   0.5564   1.0259   H         1 RES1   0.0000
    16 H16     -5.0425   1.3504  -0.5972   H         1 RES1   0.0000
    17 H17     -5.8038  -0.3006  -0.5978   H         1 RES1   0.0000
    18 H18     -6.1767   0.8721   3.0914   H         1 RES1   0.0000
    19 H19     -0.8586   1.8154  -0.8238   H         1 RES1   0.0000
@<TRIPOS>BOND
     1     1     3    1
     2     1     9    2
     3     1    10    1
     4     3     2    1
     5     2    11    1
     6     2    12    1
     7     3     4    1
     8     3    13    1
     9     4     7    1
    10     4    14    1
    11     4    15    1
    12     8     5    2
    13     8     6    1
    14     6    18    1
    15     7     8    1
    16     7    16    1
    17     7    17    1
    18    10    19    1
@<TRIPOS>SUBSTRUCTURE
     1 RES1        1 GROUP             0 ****  ****    0  
