@<TRIPOS>MOLECULE
L-lactic_acid
    12    11     1     0     0
SMALL
NO_CHARGES
****
Generated from the CSD

@<TRIPOS>ATOM
     1 C1       0.9934  -1.0927   0.9951   C.3       1 RES1   0.0000
     2 C2       0.3040  -0.4704  -0.2262   C.3       1 RES1   0.0000
     3 O3      -1.0998  -0.7507  -0.0860   O.3       1 RES1   0.0000
     4 C4       0.5030   1.0505  -0.2971   C.2       1 RES1   0.0000
     5 O5       0.0528   1.5791   0.8764   O.3       1 RES1   0.0000
     6 O6       0.9786   1.7051  -1.1828   O.2       1 RES1   0.0000
     7 H        0.5460  -0.7224   1.9297   H         1 RES1   0.0000
     8 H        2.0768  -0.9009   1.0151   H         1 RES1   0.0000
     9 H        0.8381  -2.1842   0.9600   H         1 RES1   0.0000
    10 H        0.6958  -0.9074  -1.1549   H         1 RES1   0.0000
    11 H       -1.5257  -0.5283  -0.9099   H         1 RES1   0.0000
    12 H       -0.4089   0.8892   1.3661   H         1 RES1   0.0000
@<TRIPOS>BOND
     1     1     2    1
     2     2     3    1
     3     2     4    1
     4     4     5    1
     5     4     6    2
     6     1     7    1
     7     1     8    1
     8     1     9    1
     9     2    10    1
    10     3    11    1
    11     5    12    1
@<TRIPOS>SUBSTRUCTURE
     1 RES1        1 GROUP             0 ****  ****    0  
