@<TRIPOS>MOLECULE
L-mandelic_acid
    19    19     1     0     0
SMALL
NO_CHARGES
****
Generated from the CSD

@<TRIPOS>ATOM
     1 C1      -1.3862   1.3479   1.5082   C.2       1 RES1   0.0000
     2 C2       0.0660   1.2294   1.0678   C.3       1 RES1   0.0000
     3 O3       0.5472   2.3877   0.3912   O.3       1 RES1   0.0000
     4 C4       0.2782   0.0375   0.1664   C.ar      1 RES1   0.0000
     5 C5       1.0778  -1.0407   0.5618   C.ar      1 RES1   0.0000
     6 C6       1.2864  -2.1269  -0.2907   C.ar      1 RES1   0.0000
     7 C7       0.6962  -2.1460  -1.5553   C.ar      1 RES1   0.0000
     8 C8      -0.0995  -1.0740  -1.9623   C.ar      1 RES1   0.0000
     9 C9      -0.3022   0.0106  -1.1064   C.ar      1 RES1   0.0000
    10 O10     -1.9475   0.5972   2.2704   O.2       1 RES1   0.0000
    11 O11     -2.0273   2.3923   0.9536   O.3       1 RES1   0.0000
    12 H12      0.6764   1.1338   1.9948   H         1 RES1   0.0000
    13 H13      1.2291   2.1130  -0.2269   H         1 RES1   0.0000
    14 H14      1.5576  -1.0393   1.5538   H         1 RES1   0.0000
    15 H15      1.9215  -2.9678   0.0331   H         1 RES1   0.0000
    16 H16      0.8618  -3.0011  -2.2308   H         1 RES1   0.0000
    17 H17     -0.5643  -1.0825  -2.9618   H         1 RES1   0.0000
    18 H18     -0.9276   0.8531  -1.4433   H         1 RES1   0.0000
    19 H19     -2.9433   2.3759   1.2757   H         1 RES1   0.0000
@<TRIPOS>BOND
     1     1     2    1
     2     1    10    2
     3     1    11    1
     4     2     3    1
     5     2     4    1
     6     2    12    1
     7     3    13    1
     8     4     5   ar
     9     4     9   ar
    10     5     6   ar
    11     5    14    1
    12     6     7   ar
    13     6    15    1
    14     7     8   ar
    15     7    16    1
    16     8     9   ar
    17     8    17    1
    18     9    18    1
    19    11    19    1
@<TRIPOS>SUBSTRUCTURE
     1 RES1        1 GROUP             0 ****  ****    0  
