@<TRIPOS>MOLECULE
L-methionine
    20    19     1     0     0
SMALL
NO_CHARGES
****
Generated from the CSD

@<TRIPOS>ATOM
     1 C1       1.8579   0.2111  -1.2128   C.2       1 RES1   0.0000
     2 N2       2.1396  -2.0358  -0.3396   N.3       1 RES1   0.0000
     3 C3       1.1390  -1.0064  -0.6640   C.3       1 RES1   0.0000
     4 C4       0.2358  -0.7503   0.5558   C.3       1 RES1   0.0000
     5 C5      -0.8953   0.2482   0.2559   C.3       1 RES1   0.0000
     6 S6      -1.9178   0.4533   1.7524   S.3       1 RES1   0.0000
     7 C7      -3.1129   1.6463   1.0875   C.3       1 RES1   0.0000
     8 O8       2.0866   0.4286  -2.3785   O.2       1 RES1   0.0000
     9 O9       2.2883   1.0421  -0.2463   O.3       1 RES1   0.0000
    10 H10      1.6854  -2.8817   0.0456   H         1 RES1   0.0000
    11 H11      2.6233  -2.3567  -1.1968   H         1 RES1   0.0000
    12 H12      0.5091  -1.4143  -1.4915   H         1 RES1   0.0000
    13 H13      0.8582  -0.3898   1.4091   H         1 RES1   0.0000
    14 H14     -0.2088  -1.7256   0.8717   H         1 RES1   0.0000
    15 H15     -1.5157  -0.1342  -0.5880   H         1 RES1   0.0000
    16 H16     -0.4694   1.2295  -0.0552   H         1 RES1   0.0000
    17 H17     -3.8494   1.9042   1.8811   H         1 RES1   0.0000
    18 H18     -3.6544   1.2028   0.2224   H         1 RES1   0.0000
    19 H19     -2.5903   2.5742   0.7642   H         1 RES1   0.0000
    20 H20      2.7912   1.7549  -0.6729   H         1 RES1   0.0000
@<TRIPOS>BOND
     1     1     3    1
     2     1     8    2
     3     1     9    1
     4     2     3    1
     5     2    10    1
     6     2    11    1
     7     3     4    1
     8     3    12    1
     9     4     5    1
    10     4    13    1
    11     4    14    1
    12     5     6    1
    13     5    15    1
    14     5    16    1
    15     6     7    1
    16     7    17    1
    17     7    18    1
    18     7    19    1
    19     9    20    1
@<TRIPOS>SUBSTRUCTURE
     1 RES1        1 GROUP             0 ****  ****    0  
