@<TRIPOS>MOLECULE
L-proline
    17    17     1     0     0
SMALL
NO_CHARGES
****
Generated from the CSD

@<TRIPOS>ATOM
     1 C1      -1.1667   1.5565  -0.4039   C.2       1 RES1   0.0000
     2 N2       1.0037   0.7431   0.3500   N.3       1 RES1   0.0000
     3 C3      -0.0207   0.6032  -0.6861   C.3       1 RES1   0.0000
     4 C4      -0.4218  -0.8842  -0.7123   C.3       1 RES1   0.0000
     5 C5       0.1971  -1.4615   0.5678   C.3       1 RES1   0.0000
     6 C6       1.4515  -0.5958   0.7217   C.3       1 RES1   0.0000
     7 O7      -1.4397   2.5490  -1.0349   O.2       1 RES1   0.0000
     8 O8      -1.8630   1.2086   0.6944   O.3       1 RES1   0.0000
     9 H9       1.8109   1.3211   0.0098   H         1 RES1   0.0000
    10 H10      0.4274   0.8938  -1.6666   H         1 RES1   0.0000
    11 H11      0.0382  -1.3830  -1.5992   H         1 RES1   0.0000
    12 H12     -1.5208  -1.0513  -0.7652   H         1 RES1   0.0000
    13 H13     -0.4869  -1.2947   1.4339   H         1 RES1   0.0000
    14 H14      0.4239  -2.5490   0.4923   H         1 RES1   0.0000
    15 H15      2.2402  -0.9294   0.0065   H         1 RES1   0.0000
    16 H16      1.8700  -0.6142   1.7535   H         1 RES1   0.0000
    17 H17     -2.5426   1.8875   0.8377   H         1 RES1   0.0000
@<TRIPOS>BOND
     1     1     3    1
     2     1     7    2
     3     1     8    1
     4     2     3    1
     5     2     6    1
     6     2     9    1
     7     3     4    1
     8     3    10    1
     9     4     5    1
    10     4    11    1
    11     4    12    1
    12     5     6    1
    13     5    13    1
    14     5    14    1
    15     6    15    1
    16     6    16    1
    17     8    17    1
@<TRIPOS>SUBSTRUCTURE
     1 RES1        1 GROUP             0 ****  ****    0  
