@<TRIPOS>MOLECULE
L-serine
    14    13     1     0     0
SMALL
NO_CHARGES
****
Generated from the CSD

@<TRIPOS>ATOM
     1 N1       0.8577  -1.5005  -0.6361   N.3       1 RES1   0.0000
     2 C2       0.7634  -0.1949   0.1000   C.3       1 RES1   0.0000
     3 C3       1.0616  -0.2612   1.5890   C.3       1 RES1   0.0000
     4 O4       0.1318  -1.1137   2.2627   O.3       1 RES1   0.0000
     5 C5      -0.5696   0.5560  -0.1235   C.2       1 RES1   0.0000
     6 O6      -0.9906   0.3042  -1.4013   O.3       1 RES1   0.0000
     7 O7      -1.1415   1.3147   0.6127   O.2       1 RES1   0.0000
     8 H        0.2722  -2.1727  -0.1585   H         1 RES1   0.0000
     9 H        1.7905  -1.8693  -0.5450   H         1 RES1   0.0000
    10 H        1.5069   0.4796  -0.3671   H         1 RES1   0.0000
    11 H        2.0909  -0.6366   1.7413   H         1 RES1   0.0000
    12 H        1.0197   0.7617   2.0046   H         1 RES1   0.0000
    13 H        0.1867  -0.9136   3.1918   H         1 RES1   0.0000
    14 H       -0.4411  -0.4260  -1.7272   H         1 RES1   0.0000
@<TRIPOS>BOND
     1     1     2    1
     2     2     3    1
     3     3     4    1
     4     2     5    1
     5     5     6    1
     6     5     7    2
     7     1     8    1
     8     1     9    1
     9     2    10    1
    10     3    11    1
    11     3    12    1
    12     4    13    1
    13     6    14    1
@<TRIPOS>SUBSTRUCTURE
     1 RES1        1 GROUP             0 ****  ****    0  
