@<TRIPOS>MOLECULE
L-tartaric_acid
    16    15     1     0     0
SMALL
NO_CHARGES
****
Generated from the CSD

@<TRIPOS>ATOM
     1 C1      -1.3245  -0.2660  -1.1376   C.2       1 RES1   0.0000
     2 O2       0.6783  -1.5785  -1.4329   O.3       1 RES1   0.0000
     3 O3       2.0414  -0.4378   0.5386   O.3       1 RES1   0.0000
     4 C4       0.1783  -0.3554  -0.9218   C.3       1 RES1   0.0000
     5 C5       0.6331  -0.2504   0.5249   C.3       1 RES1   0.0000
     6 C6       0.3785   1.0932   1.1747   C.2       1 RES1   0.0000
     7 O7      -1.8943   0.4897  -1.8886   O.2       1 RES1   0.0000
     8 O8      -1.9955  -1.1480  -0.3767   O.3       1 RES1   0.0000
     9 O9       1.2799   1.8041   1.5493   O.2       1 RES1   0.0000
    10 O10     -0.9224   1.3840   1.3249   O.3       1 RES1   0.0000
    11 H11      1.6124  -1.6436  -1.2129   H         1 RES1   0.0000
    12 H12      2.4385   0.2976   1.0213   H         1 RES1   0.0000
    13 H13      0.6560   0.4566  -1.5188   H         1 RES1   0.0000
    14 H14      0.1873  -1.0464   1.1634   H         1 RES1   0.0000
    15 H15     -2.9421  -1.0479  -0.5668   H         1 RES1   0.0000
    16 H16     -1.0047   2.2481   1.7586   H         1 RES1   0.0000
@<TRIPOS>BOND
     1     1     4    1
     2     1     7    2
     3     1     8    1
     4     2     4    1
     5     2    11    1
     6     3     5    1
     7     3    12    1
     8     4     5    1
     9     4    13    1
    10     5     6    1
    11     5    14    1
    12     6     9    2
    13     6    10    1
    14     8    15    1
    15    10    16    1
@<TRIPOS>SUBSTRUCTURE
     1 RES1        1 GROUP             0 ****  ****    0  
