@<TRIPOS>MOLECULE
L-tryptophan
    27    28     1     0     0
SMALL
NO_CHARGES
****
Generated from the CSD

@<TRIPOS>ATOM
     1 C1       1.5139  -1.8218  -0.6228   C.3       1 RES1   0.0000
     2 N2       1.9136  -3.2376  -0.5675   N.3       1 RES1   0.0000
     3 C3       0.7503  -1.5720  -1.9087   C.2       1 RES1   0.0000
     4 C4       0.4659   0.0092   0.7707   C.2       1 RES1   0.0000
     5 C5      -0.7032   0.6681   0.7249   C.ar      1 RES1   0.0000
     6 C6      -1.9672   0.2601   0.5541   C.ar      1 RES1   0.0000
     7 C7      -2.9383   1.1904   0.5594   C.ar      1 RES1   0.0000
     8 O8      -0.3399  -1.0682  -2.0323   O.2       1 RES1   0.0000
     9 C9      -1.3818   2.9013   0.9033   C.ar      1 RES1   0.0000
    10 O10      1.4523  -1.9946  -2.9773   O.3       1 RES1   0.0000
    11 C11      0.7217  -1.4666   0.6457   C.3       1 RES1   0.0000
    12 C12     -2.6511   2.4936   0.7331   C.ar      1 RES1   0.0000
    13 C13     -0.4232   1.9682   0.8949   C.ar      1 RES1   0.0000
    14 N14      0.8312   2.0872   1.0339   N.pl3     1 RES1   0.0000
    15 C15      1.3993   0.9541   0.9682   C.2       1 RES1   0.0000
    16 H16      2.4491  -1.2136  -0.6642   H         1 RES1   0.0000
    17 H17      2.4993  -3.4211   0.2654   H         1 RES1   0.0000
    18 H18      2.5114  -3.4758  -1.3786   H         1 RES1   0.0000
    19 H19     -2.2135  -0.8035   0.4116   H         1 RES1   0.0000
    20 H20     -3.9878   0.8795   0.4203   H         1 RES1   0.0000
    21 H21     -1.1360   3.9653   1.0472   H         1 RES1   0.0000
    22 H22      0.9201  -1.8193  -3.7702   H         1 RES1   0.0000
    23 H23     -0.2314  -2.0416   0.6683   H         1 RES1   0.0000
    24 H24      1.3009  -1.7812   1.5461   H         1 RES1   0.0000
    25 H25     -3.4657   3.2373   0.7365   H         1 RES1   0.0000
    26 H26      1.3236   2.9976   1.1838   H         1 RES1   0.0000
    27 H27      2.4847   0.8492   1.0698   H         1 RES1   0.0000
@<TRIPOS>BOND
     1     1     2    1
     2     1     3    1
     3     1    11    1
     4     1    16    1
     5     2    17    1
     6     2    18    1
     7     3     8    2
     8     3    10    1
     9     4     5    1
    10    11     4    1
    11    15     4    2
    12     5     6   ar
    13    13     5   ar
    14     6     7   ar
    15     6    19    1
    16     7    12   ar
    17     7    20    1
    18    12     9   ar
    19     9    13   ar
    20     9    21    1
    21    10    22    1
    22    11    23    1
    23    11    24    1
    24    12    25    1
    25    13    14    1
    26    14    15    1
    27    14    26    1
    28    15    27    1
@<TRIPOS>SUBSTRUCTURE
     1 RES1        1 GROUP             0 ****  ****    0  
