@<TRIPOS>MOLECULE
lactobionic_acid
    46    46     1     0     0
SMALL
NO_CHARGES
****
Generated from the CSD

@<TRIPOS>ATOM
     1 O1      -2.5598  -0.7917  -1.5199   O.3       1 RES1   0.0000
     2 C2      -1.3545  -1.3714  -2.0061   C.3       1 RES1   0.0000
     3 C3      -0.4149  -1.8886  -0.9209   C.3       1 RES1   0.0000
     4 O4       0.7149  -2.4438  -1.6033   O.3       1 RES1   0.0000
     5 C5      -0.0846  -0.8131   0.1233   C.3       1 RES1   0.0000
     6 O6       0.1846   0.3659  -0.6442   O.3       1 RES1   0.0000
     7 C7       0.3723   1.6520  -0.0473   C.3       1 RES1   0.0000
     8 O8       0.5565   2.6489  -1.0543   O.3       1 RES1   0.0000
     9 C9      -0.6397   2.7962  -1.8335   C.3       1 RES1   0.0000
    10 C10     -0.2937   3.6833  -2.9928   C.3       1 RES1   0.0000
    11 O11      0.6723   3.1097  -3.8690   O.3       1 RES1   0.0000
    12 C12     -1.7905   3.3112  -0.9935   C.3       1 RES1   0.0000
    13 O13     -1.5409   4.6700  -0.6127   O.3       1 RES1   0.0000
    14 C14     -2.0033   2.4421   0.2348   C.3       1 RES1   0.0000
    15 O15     -2.8378   1.3040   0.0062   O.3       1 RES1   0.0000
    16 C16     -0.6846   2.1658   0.9231   C.3       1 RES1   0.0000
    17 O17     -0.7729   1.3471   2.0992   O.3       1 RES1   0.0000
    18 C18      1.0593  -1.1177   1.0693   C.3       1 RES1   0.0000
    19 O19      2.2832  -1.3953   0.3657   O.3       1 RES1   0.0000
    20 C20      0.7959  -2.1615   2.1177   C.3       1 RES1   0.0000
    21 O21      1.8556  -2.2357   3.0890   O.3       1 RES1   0.0000
    22 C22      0.6327  -3.5531   1.4990   C.2       1 RES1   0.0000
    23 O23      1.7272  -3.8068   0.7252   O.3       1 RES1   0.0000
    24 O24     -0.3021  -4.3013   1.5830   O.2       1 RES1   0.0000
    25 H       -3.1784  -1.5097  -1.4105   H         1 RES1   0.0000
    26 H       -0.8420  -0.5973  -2.5980   H         1 RES1   0.0000
    27 H       -1.5768  -2.1944  -2.7099   H         1 RES1   0.0000
    28 H       -0.9586  -2.7150  -0.4264   H         1 RES1   0.0000
    29 H        1.1115  -3.0900  -1.0202   H         1 RES1   0.0000
    30 H       -1.0019  -0.6654   0.7239   H         1 RES1   0.0000
    31 H        1.3280   1.6480   0.5072   H         1 RES1   0.0000
    32 H       -0.9288   1.8154  -2.2580   H         1 RES1   0.0000
    33 H        0.0734   4.6564  -2.6171   H         1 RES1   0.0000
    34 H       -1.1771   3.8882  -3.6133   H         1 RES1   0.0000
    35 H        1.4357   2.9529  -3.3188   H         1 RES1   0.0000
    36 H       -2.7065   3.2825  -1.6110   H         1 RES1   0.0000
    37 H       -2.3859   5.0663  -0.4268   H         1 RES1   0.0000
    38 H       -2.6084   3.0402   0.9340   H         1 RES1   0.0000
    39 H       -2.4084   0.7113  -0.6214   H         1 RES1   0.0000
    40 H       -0.2902   3.1585   1.2238   H         1 RES1   0.0000
    41 H       -1.5376   1.6601   2.5764   H         1 RES1   0.0000
    42 H        1.2274  -0.1931   1.6538   H         1 RES1   0.0000
    43 H        2.2538  -0.8294  -0.4096   H         1 RES1   0.0000
    44 H       -0.1524  -1.9524   2.6348   H         1 RES1   0.0000
    45 H        1.8324  -1.4182   3.5794   H         1 RES1   0.0000
    46 H        2.3503  -3.0669   0.8427   H         1 RES1   0.0000
@<TRIPOS>BOND
     1     1     2    1
     2     2     3    1
     3     3     4    1
     4     3     5    1
     5     5     6    1
     6     6     7    1
     7     7     8    1
     8     8     9    1
     9     9    10    1
    10    10    11    1
    11     9    12    1
    12    12    13    1
    13    12    14    1
    14    14    15    1
    15    14    16    1
    16    16     7    1
    17    16    17    1
    18     5    18    1
    19    18    19    1
    20    18    20    1
    21    20    21    1
    22    20    22    1
    23    22    23    1
    24    22    24    2
    25     1    25    1
    26     2    26    1
    27     2    27    1
    28     3    28    1
    29     4    29    1
    30     5    30    1
    31     7    31    1
    32     9    32    1
    33    10    33    1
    34    10    34    1
    35    11    35    1
    36    12    36    1
    37    13    37    1
    38    14    38    1
    39    15    39    1
    40    16    40    1
    41    17    41    1
    42    18    42    1
    43    19    43    1
    44    20    44    1
    45    21    45    1
    46    23    46    1
@<TRIPOS>SUBSTRUCTURE
     1 RES1        1 GROUP             0 ****  ****    0  
