@<TRIPOS>MOLECULE
lactose
    45    46     1     0     0
SMALL
NO_CHARGES
****
Generated from the CSD

@<TRIPOS>ATOM
     1 O1      -3.0585  -3.9131   2.8750   O.3       1 RES1   0.0000
     2 C2      -3.0848  -2.5739   2.4287   C.3       1 RES1   0.0000
     3 C3      -2.1216  -2.3818   1.2611   C.3       1 RES1   0.0000
     4 O4      -1.8163  -1.0133   1.2099   O.3       1 RES1   0.0000
     5 C5      -0.9051  -0.6854   0.1850   C.3       1 RES1   0.0000
     6 O6      -0.7773   0.7180   0.2875   O.3       1 RES1   0.0000
     7 C7      -0.9146   1.4116  -0.9227   C.3       1 RES1   0.0000
     8 C8      -2.3779   1.6759  -1.2472   C.3       1 RES1   0.0000
     9 O9      -3.0974   0.4906  -1.4813   O.3       1 RES1   0.0000
    10 C10     -2.4541   2.5064  -2.5107   C.3       1 RES1   0.0000
    11 O11     -3.7902   2.9100  -2.6953   O.3       1 RES1   0.0000
    12 C12     -1.5953   3.7366  -2.4437   C.3       1 RES1   0.0000
    13 O13     -2.1459   4.6736  -1.5414   O.3       1 RES1   0.0000
    14 O14     -0.2937   3.5092  -1.9675   O.3       1 RES1   0.0000
    15 C15     -0.2167   2.7680  -0.7783   C.3       1 RES1   0.0000
    16 C16      1.2630   2.6430  -0.4258   C.3       1 RES1   0.0000
    17 O17      1.4219   2.1964   0.9066   O.3       1 RES1   0.0000
    18 C18      0.4215  -1.3491   0.4613   C.3       1 RES1   0.0000
    19 O19      1.3614  -0.9893  -0.5196   O.3       1 RES1   0.0000
    20 C20      0.2201  -2.8467   0.4146   C.3       1 RES1   0.0000
    21 O21      1.4263  -3.4784   0.7671   O.3       1 RES1   0.0000
    22 C22     -0.8706  -3.2508   1.3846   C.3       1 RES1   0.0000
    23 O23     -0.3555  -3.1714   2.6910   O.3       1 RES1   0.0000
    24 H24     -3.7773  -4.0658   3.4916   H         1 RES1   0.0000
    25 H25     -4.1317  -2.3249   2.1462   H         1 RES1   0.0000
    26 H26     -2.7963  -1.9471   3.3025   H         1 RES1   0.0000
    27 H27     -2.6464  -2.6566   0.3132   H         1 RES1   0.0000
    28 H28     -1.3230  -0.9973  -0.7944   H         1 RES1   0.0000
    29 H29     -0.4100   0.8495  -1.7428   H         1 RES1   0.0000
    30 H30     -2.8785   2.1986  -0.3996   H         1 RES1   0.0000
    31 H31     -3.9679   0.7297  -1.8119   H         1 RES1   0.0000
    32 H32     -2.1593   1.8895  -3.3922   H         1 RES1   0.0000
    33 H33     -3.9251   3.7276  -2.2047   H         1 RES1   0.0000
    34 H34     -1.5172   4.2403  -3.4340   H         1 RES1   0.0000
    35 H35     -1.4530   5.2712  -1.2558   H         1 RES1   0.0000
    36 H36     -0.7051   3.3585   0.0341   H         1 RES1   0.0000
    37 H37      1.7875   1.9250  -1.0931   H         1 RES1   0.0000
    38 H38      1.7707   3.6325  -0.4920   H         1 RES1   0.0000
    39 H39      1.1060   1.2929   0.9779   H         1 RES1   0.0000
    40 H40      0.8334  -1.0307   1.4466   H         1 RES1   0.0000
    41 H41      2.1181  -1.5766  -0.4402   H         1 RES1   0.0000
    42 H42     -0.0415  -3.1687  -0.6207   H         1 RES1   0.0000
    43 H43      1.4568  -3.5546   1.7251   H         1 RES1   0.0000
    44 H44     -1.1231  -4.3251   1.2185   H         1 RES1   0.0000
    45 H45     -0.9811  -3.5768   3.2960   H         1 RES1   0.0000
@<TRIPOS>BOND
     1     1     2    1
     2     1    24    1
     3     3     2    1
     4     2    25    1
     5     2    26    1
     6     3     4    1
     7     3    22    1
     8     3    27    1
     9     4     5    1
    10     5     6    1
    11     5    18    1
    12     5    28    1
    13     7     6    1
    14     7     8    1
    15     7    15    1
    16     7    29    1
    17     8     9    1
    18     8    10    1
    19     8    30    1
    20     9    31    1
    21    10    11    1
    22    10    12    1
    23    10    32    1
    24    11    33    1
    25    12    13    1
    26    12    14    1
    27    12    34    1
    28    13    35    1
    29    14    15    1
    30    15    16    1
    31    15    36    1
    32    16    17    1
    33    16    37    1
    34    16    38    1
    35    17    39    1
    36    18    19    1
    37    18    20    1
    38    18    40    1
    39    19    41    1
    40    20    21    1
    41    20    22    1
    42    20    42    1
    43    21    43    1
    44    22    23    1
    45    22    44    1
    46    23    45    1
@<TRIPOS>SUBSTRUCTURE
     1 RES1        1 GROUP             0 ****  ****    0  
