@<TRIPOS>MOLECULE
maleic_acid
    12    11     1     0     0
SMALL
NO_CHARGES
****
Generated from the CSD

@<TRIPOS>ATOM
     1 O1      -2.9192  -0.1672  -0.2429   O.2       1 RES1   0.0000
     2 C2      -1.7690   0.2098  -0.0927   C.2       1 RES1   0.0000
     3 O3      -1.5704   1.5415   0.0487   O.3       1 RES1   0.0000
     4 C4      -0.8051  -0.7592  -0.0933   C.2       1 RES1   0.0000
     5 C5       0.5400  -0.7502  -0.0121   C.2       1 RES1   0.0000
     6 C6       1.4623   0.2482   0.0571   C.2       1 RES1   0.0000
     7 O7       1.1554   1.4189   0.0323   O.2       1 RES1   0.0000
     8 O8       2.7801  -0.0746   0.1427   O.3       1 RES1   0.0000
     9 H       -0.7151   1.7655   0.4276   H         1 RES1   0.0000
    10 H       -1.2188  -1.7862  -0.1783   H         1 RES1   0.0000
    11 H        1.0175  -1.7507  -0.0155   H         1 RES1   0.0000
    12 H        2.8925  -1.0383   0.1462   H         1 RES1   0.0000
@<TRIPOS>BOND
     1     1     2    2
     2     2     3    1
     3     2     4    1
     4     3     9    1
     5     4     5    2
     6     4    10    1
     7     5     6    1
     8     5    11    1
     9     6     7    2
    10     6     8    1
    11     8    12    1
@<TRIPOS>SUBSTRUCTURE
     1 RES1        1 GROUP             0 A     ****    0  
