@<TRIPOS>MOLECULE
malic_acid
    15    14     1     0     0
SMALL
NO_CHARGES
****
Generated from the CSD

@<TRIPOS>ATOM
     1 O1      -2.9885  -0.4492  -0.3953   O.3       1 RES1   0.0000
     2 C2      -1.8753   0.2205  -0.0406   C.2       1 RES1   0.0000
     3 O3      -1.8946   1.3755   0.3091   O.2       1 RES1   0.0000
     4 C4      -0.6309  -0.6420  -0.1455   C.3       1 RES1   0.0000
     5 C5       0.6324   0.1067   0.2923   C.3       1 RES1   0.0000
     6 O6       0.6890   1.3410  -0.4000   O.3       1 RES1   0.0000
     7 C7       1.9142  -0.6909   0.0734   C.2       1 RES1   0.0000
     8 O8       1.9640  -1.9001   0.0258   O.2       1 RES1   0.0000
     9 O9       2.9845   0.1246  -0.0478   O.3       1 RES1   0.0000
    10 H       -3.7499   0.1484  -0.3162   H         1 RES1   0.0000
    11 H       -0.5220  -0.9629  -1.2084   H         1 RES1   0.0000
    12 H       -0.7752  -1.5495   0.4867   H         1 RES1   0.0000
    13 H        0.5797   0.3479   1.3796   H         1 RES1   0.0000
    14 H       -0.0536   1.9007  -0.1618   H         1 RES1   0.0000
    15 H        2.7407   1.0627  -0.0542   H         1 RES1   0.0000
@<TRIPOS>BOND
     1     1     2    1
     2     1    10    1
     3     2     3    2
     4     2     4    1
     5     4     5    1
     6     4    11    1
     7     4    12    1
     8     5     6    1
     9     5     7    1
    10     5    13    1
    11     6    14    1
    12     7     8    2
    13     7     9    1
    14     9    15    1
@<TRIPOS>SUBSTRUCTURE
     1 RES1        1 GROUP             0 A     ****    0  
