@<TRIPOS>MOLECULE
malonic_acid
    11    10     1     0     0
SMALL
NO_CHARGES
****
Generated from the CSD

@<TRIPOS>ATOM
     1 C1       1.3269  -0.2548  -0.0030   C.2       1 RES1   0.0000
     2 C2      -0.0775  -0.8429  -0.0001   C.3       1 RES1   0.0000
     3 C3      -1.3511  -0.0088   0.0031   C.2       1 RES1   0.0000
     4 O4       2.3408  -0.9133  -0.0168   O.2       1 RES1   0.0000
     5 O5       1.3845   1.0850   0.0122   O.3       1 RES1   0.0000
     6 O6      -2.4681  -0.4714   0.0171   O.2       1 RES1   0.0000
     7 O7      -1.1637   1.3192  -0.0121   O.3       1 RES1   0.0000
     8 H8      -0.1404  -1.5045  -0.8968   H         1 RES1   0.0000
     9 H9      -0.1362  -1.5053   0.8964   H         1 RES1   0.0000
    10 H10      2.3189   1.3482   0.0101   H         1 RES1   0.0000
    11 H11     -2.0344   1.7482  -0.0099   H         1 RES1   0.0000
@<TRIPOS>BOND
     1     1     2    1
     2     1     4    2
     3     1     5    1
     4     2     3    1
     5     2     8    1
     6     2     9    1
     7     3     6    2
     8     3     7    1
     9     5    10    1
    10     7    11    1
@<TRIPOS>SUBSTRUCTURE
     1 RES1        1 GROUP             0 ****  ****    0  
