@<TRIPOS>MOLECULE
maltitol
    47    47     1     0     0
SMALL
NO_CHARGES
****
Generated from the CSD

@<TRIPOS>ATOM
     1 O1       2.4900   0.5609   2.3354   O.3       1 RES1   0.0000
     2 C2       0.4080   0.6723   1.0643   C.3       1 RES1   0.0000
     3 O3       2.9630   3.1419   2.3502   O.3       1 RES1   0.0000
     4 C4       1.6529   2.7387   2.0033   C.3       1 RES1   0.0000
     5 C5       1.7426   1.3325   1.4327   C.3       1 RES1   0.0000
     6 O6       0.6490  -0.2612   0.0423   O.3       1 RES1   0.0000
     7 C7      -2.3311   1.3589  -2.4629   C.3       1 RES1   0.0000
     8 C8      -0.3583  -0.3105  -0.9526   C.3       1 RES1   0.0000
     9 O9      -0.0784   0.8055  -1.7717   O.3       1 RES1   0.0000
    10 C10     -0.9282   0.9324  -2.8764   C.3       1 RES1   0.0000
    11 O11     -3.0632   1.7658  -3.6027   O.3       1 RES1   0.0000
    12 C12     -0.8473  -0.3063  -3.7597   C.3       1 RES1   0.0000
    13 O13      0.4236  -0.3351  -4.3741   O.3       1 RES1   0.0000
    14 C14     -1.0273  -1.6052  -2.9930   C.3       1 RES1   0.0000
    15 C15     -0.4658   0.0702   2.1784   C.3       1 RES1   0.0000
    16 O16     -2.3801  -1.7755  -2.6423   O.3       1 RES1   0.0000
    17 C17     -0.1847  -1.5946  -1.7313   C.3       1 RES1   0.0000
    18 O18      1.1782  -1.7106  -2.0644   O.3       1 RES1   0.0000
    19 C19      0.9348  -1.8525   3.1965   C.3       1 RES1   0.0000
    20 O20     -0.3236   0.8301   3.3571   O.3       1 RES1   0.0000
    21 C21     -0.3682  -1.4072   2.5660   C.3       1 RES1   0.0000
    22 O22     -0.6768  -2.2525   1.4844   O.3       1 RES1   0.0000
    23 O23      1.2059  -1.0175   4.3048   O.3       1 RES1   0.0000
    24 H24      3.2972   1.0478   2.5268   H         1 RES1   0.0000
    25 H25     -0.1683   1.5272   0.6293   H         1 RES1   0.0000
    26 H26      2.9455   4.0204   2.7336   H         1 RES1   0.0000
    27 H27      1.0420   2.8065   2.9270   H         1 RES1   0.0000
    28 H28      1.2603   3.4659   1.2585   H         1 RES1   0.0000
    29 H29      2.3750   1.4121   0.5132   H         1 RES1   0.0000
    30 H30     -2.2981   2.2319  -1.7722   H         1 RES1   0.0000
    31 H31     -2.9156   0.5531  -1.9743   H         1 RES1   0.0000
    32 H32     -1.3662  -0.2392  -0.4938   H         1 RES1   0.0000
    33 H33     -0.5152   1.7932  -3.4631   H         1 RES1   0.0000
    34 H34     -3.9715   1.9481  -3.3516   H         1 RES1   0.0000
    35 H35     -1.5859  -0.2423  -4.5925   H         1 RES1   0.0000
    36 H36      1.0966  -0.4544  -3.6996   H         1 RES1   0.0000
    37 H37     -0.7687  -2.4790  -3.6354   H         1 RES1   0.0000
    38 H38     -1.5322   0.2135   1.8671   H         1 RES1   0.0000
    39 H39     -2.6021  -2.7089  -2.6420   H         1 RES1   0.0000
    40 H40     -0.4296  -2.4804  -1.1016   H         1 RES1   0.0000
    41 H41      1.6895  -1.5650  -1.2629   H         1 RES1   0.0000
    42 H42      0.8587  -2.8970   3.5755   H         1 RES1   0.0000
    43 H43      1.7867  -1.8028   2.4877   H         1 RES1   0.0000
    44 H44     -0.5339   0.2969   4.1281   H         1 RES1   0.0000
    45 H45     -1.1756  -1.6099   3.3148   H         1 RES1   0.0000
    46 H46     -0.8700  -3.1340   1.8126   H         1 RES1   0.0000
    47 H47      1.5743  -0.1908   3.9868   H         1 RES1   0.0000
@<TRIPOS>BOND
     1     5     1    1
     2     1    24    1
     3     5     2    1
     4     2     6    1
     5     2    15    1
     6     2    25    1
     7     3     4    1
     8     3    26    1
     9     4     5    1
    10     4    27    1
    11     4    28    1
    12     5    29    1
    13     8     6    1
    14    10     7    1
    15     7    11    1
    16     7    30    1
    17     7    31    1
    18     8     9    1
    19     8    17    1
    20     8    32    1
    21     9    10    1
    22    10    12    1
    23    10    33    1
    24    11    34    1
    25    12    13    1
    26    12    14    1
    27    12    35    1
    28    13    36    1
    29    14    16    1
    30    14    17    1
    31    14    37    1
    32    15    20    1
    33    15    21    1
    34    15    38    1
    35    16    39    1
    36    17    18    1
    37    17    40    1
    38    18    41    1
    39    21    19    1
    40    19    23    1
    41    19    42    1
    42    19    43    1
    43    20    44    1
    44    21    22    1
    45    21    45    1
    46    22    46    1
    47    23    47    1
@<TRIPOS>SUBSTRUCTURE
     1 RES1        1 GROUP             0 ****  ****    0  
