@<TRIPOS>MOLECULE
mannitol
    26    25     1     0     0
SMALL
NO_CHARGES
****
Generated from the CSD

@<TRIPOS>ATOM
     1 O1      -2.4799   2.4441   0.8305   O.3       1 RES1   0.0000
     2 C2      -1.3159   1.6837   0.5694   C.3       1 RES1   0.0000
     3 C3      -1.5041   0.2610   1.0625   C.3       1 RES1   0.0000
     4 O4      -2.4873  -0.3933   0.2977   O.3       1 RES1   0.0000
     5 C5      -0.2516  -0.6091   1.0861   C.3       1 RES1   0.0000
     6 O6      -0.5481  -1.7084   1.9217   O.3       1 RES1   0.0000
     7 C7       0.2141  -1.2298  -0.2254   C.3       1 RES1   0.0000
     8 O8       1.1898  -2.1967   0.0956   O.3       1 RES1   0.0000
     9 C9       0.8023  -0.3447  -1.3146   C.3       1 RES1   0.0000
    10 O10      1.1255  -1.2051  -2.3864   O.3       1 RES1   0.0000
    11 C11      2.0610   0.4246  -0.9446   C.3       1 RES1   0.0000
    12 O12      1.7479   1.5321  -0.1285   O.3       1 RES1   0.0000
    13 H13     -2.3440   3.3402   0.5129   H         1 RES1   0.0000
    14 H14     -0.4865   2.1876   1.1142   H         1 RES1   0.0000
    15 H15     -1.1283   1.7385  -0.5230   H         1 RES1   0.0000
    16 H16     -1.9077   0.3247   2.1027   H         1 RES1   0.0000
    17 H17     -2.6980  -1.2193   0.7420   H         1 RES1   0.0000
    18 H18      0.5859  -0.0710   1.5841   H         1 RES1   0.0000
    19 H19      0.1854  -2.3280   1.8649   H         1 RES1   0.0000
    20 H20     -0.6315  -1.8080  -0.6704   H         1 RES1   0.0000
    21 H21      1.5603  -2.5403  -0.7214   H         1 RES1   0.0000
    22 H22      0.0331   0.3513  -1.7169   H         1 RES1   0.0000
    23 H23      0.3739  -1.2849  -2.9781   H         1 RES1   0.0000
    24 H24      2.7987  -0.2044  -0.4011   H         1 RES1   0.0000
    25 H25      2.5551   0.8401  -1.8522   H         1 RES1   0.0000
    26 H26      2.5505   2.0158   0.0785   H         1 RES1   0.0000
@<TRIPOS>BOND
     1     1     2    1
     2     1    13    1
     3     2     3    1
     4     2    14    1
     5     2    15    1
     6     3     4    1
     7     3     5    1
     8     3    16    1
     9     4    17    1
    10     5     6    1
    11     5     7    1
    12     5    18    1
    13     6    19    1
    14     7     8    1
    15     7     9    1
    16     7    20    1
    17     8    21    1
    18     9    10    1
    19     9    11    1
    20     9    22    1
    21    10    23    1
    22    11    12    1
    23    11    24    1
    24    11    25    1
    25    12    26    1
@<TRIPOS>SUBSTRUCTURE
     1 RES1        1 GROUP             0 ****  ****    0  
