@<TRIPOS>MOLECULE
methylparaben
    19    19     1     0     0
SMALL
NO_CHARGES
****
Generated from the CSD

@<TRIPOS>ATOM
     1 C1      -1.1360   1.6417  -0.4210   C.2       1 RES1   0.0000
     2 C2      -0.1878   0.6138   0.1247   C.ar      1 RES1   0.0000
     3 C3      -0.0069  -0.6809  -0.3897   C.ar      1 RES1   0.0000
     4 C4       0.9029  -1.5711   0.1811   C.ar      1 RES1   0.0000
     5 C5       1.6792  -1.2222   1.2903   C.ar      1 RES1   0.0000
     6 C6       1.5022   0.0600   1.8114   C.ar      1 RES1   0.0000
     7 C7       0.5932   0.9562   1.2441   C.ar      1 RES1   0.0000
     8 O8      -1.1285   2.7123   0.1890   O.2       1 RES1   0.0000
     9 O9      -2.0016   1.5827  -1.4814   O.3       1 RES1   0.0000
    10 O10      2.5648  -2.0908   1.8443   O.3       1 RES1   0.0000
    11 C11     -2.1571   0.4536  -2.2963   C.3       1 RES1   0.0000
    12 H12     -0.5564  -1.0663  -1.2543   H         1 RES1   0.0000
    13 H13      1.0192  -2.5799  -0.2495   H         1 RES1   0.0000
    14 H14      2.0950   0.3690   2.6885   H         1 RES1   0.0000
    15 H15      0.5164   1.9494   1.7159   H         1 RES1   0.0000
    16 H16      2.9882  -1.6636   2.6064   H         1 RES1   0.0000
    17 H17     -2.9236   0.7010  -3.0652   H         1 RES1   0.0000
    18 H18     -1.2098   0.2347  -2.8367   H         1 RES1   0.0000
    19 H19     -2.5528  -0.3989  -1.7016   H         1 RES1   0.0000
@<TRIPOS>BOND
     1     1     2    1
     2     1     8    2
     3     1     9    1
     4     2     3   ar
     5     2     7   ar
     6     3     4   ar
     7     3    12    1
     8     4     5   ar
     9     4    13    1
    10     5     6   ar
    11     5    10    1
    12     6     7   ar
    13     6    14    1
    14     7    15    1
    15     9    11    1
    16    10    16    1
    17    11    17    1
    18    11    18    1
    19    11    19    1
@<TRIPOS>SUBSTRUCTURE
     1 RES1        1 GROUP             0 ****  ****    0  
