@<TRIPOS>MOLECULE
methanesulfonic_acid
     9     8     1     0     0
SMALL
NO_CHARGES
****
Generated from the CSD

@<TRIPOS>ATOM
     1 C1       0.3663   1.2398   1.1692   C.3       1 RES1   0.0000
     2 S2      -0.0947   0.2259  -0.2115   S.o2      1 RES1   0.0000
     3 O3       1.3008  -0.1807  -0.7254   O.3       1 RES1   0.0000
     4 O4      -0.5319   1.0394  -1.2808   O.2       1 RES1   0.0000
     5 O5      -0.7976  -0.9455   0.1504   O.2       1 RES1   0.0000
     6 H       -0.4777   1.9101   1.3675   H         1 RES1   0.0000
     7 H        1.2677   1.7935   0.8832   H         1 RES1   0.0000
     8 H        0.5544   0.5643   2.0117   H         1 RES1   0.0000
     9 H        1.2093   0.4405  -1.4344   H         1 RES1   0.0000
@<TRIPOS>BOND
     1     1     2    1
     2     2     3    1
     3     2     4    2
     4     2     5    2
     5     1     6    1
     6     1     7    1
     7     1     8    1
     8     3     9    1
@<TRIPOS>SUBSTRUCTURE
     1 RES1        1 GROUP             0 ****  ****    0  
