@<TRIPOS>MOLECULE
monobutyrin
    25    24     1     0     0
SMALL
NO_CHARGES
****
Generated from the CSD

@<TRIPOS>ATOM
     1 O1      -3.1001  -0.0607   0.2162   O.3       1 RES1   0.0000
     2 C2      -2.0951   0.8004  -0.2447   C.3       1 RES1   0.0000
     3 C3      -2.5341   2.2282   0.0495   C.3       1 RES1   0.0000
     4 O4      -2.8868   2.3069   1.4109   O.3       1 RES1   0.0000
     5 C5      -1.4506   3.2545  -0.2308   C.3       1 RES1   0.0000
     6 O6      -1.0368   3.1589  -1.5779   O.3       1 RES1   0.0000
     7 C7      -2.9549  -1.4170   0.2372   C.2       1 RES1   0.0000
     8 O8      -3.8100  -2.1397   0.7039   O.2       1 RES1   0.0000
     9 C9      -1.6853  -2.0007  -0.3701   C.3       1 RES1   0.0000
    10 C10     -0.6025  -2.2807   0.6833   C.3       1 RES1   0.0000
    11 C11      0.6435  -2.9217   0.0569   C.3       1 RES1   0.0000
    12 H12     -1.1420   0.5891   0.2893   H         1 RES1   0.0000
    13 H13     -1.9705   0.6740  -1.3445   H         1 RES1   0.0000
    14 H14     -3.4528   2.4706  -0.5357   H         1 RES1   0.0000
    15 H15     -3.5556   1.6404   1.5935   H         1 RES1   0.0000
    16 H16     -1.8216   4.2912  -0.0683   H         1 RES1   0.0000
    17 H17     -0.5536   3.0885   0.4064   H         1 RES1   0.0000
    18 H18     -0.4092   3.8589  -1.7715   H         1 RES1   0.0000
    19 H19     -1.9734  -2.9718  -0.8400   H         1 RES1   0.0000
    20 H20     -1.2841  -1.3941  -1.2089   H         1 RES1   0.0000
    21 H21     -0.3081  -1.3339   1.1935   H         1 RES1   0.0000
    22 H22     -1.0113  -2.9606   1.4688   H         1 RES1   0.0000
    23 H23      1.4237  -3.1187   0.8278   H         1 RES1   0.0000
    24 H24      0.3951  -3.8929  -0.4291   H         1 RES1   0.0000
    25 H25      1.0909  -2.2555  -0.7158   H         1 RES1   0.0000
@<TRIPOS>BOND
     1     1     2    1
     2     1     7    1
     3     2     3    1
     4     2    12    1
     5     2    13    1
     6     3     4    1
     7     3     5    1
     8     3    14    1
     9     4    15    1
    10     5     6    1
    11     5    16    1
    12     5    17    1
    13     6    18    1
    14     7     8    2
    15     7     9    1
    16     9    10    1
    17     9    19    1
    18     9    20    1
    19    10    11    1
    20    10    21    1
    21    10    22    1
    22    11    23    1
    23    11    24    1
    24    11    25    1
@<TRIPOS>SUBSTRUCTURE
     1 RES1        1 GROUP             0 ****  ****    0  
