@<TRIPOS>MOLECULE
nicotinamide
    15    15     1     0     0
SMALL
NO_CHARGES
****
Generated from the CSD

@<TRIPOS>ATOM
     1 N1       1.7946   1.6579   0.5436   N.am      1 RES1   0.0000
     2 C2       1.6858   0.3939   0.0590   C.2       1 RES1   0.0000
     3 O3       2.6965  -0.2007  -0.2272   O.2       1 RES1   0.0000
     4 C4       0.4359  -0.1276  -0.0673   C.ar      1 RES1   0.0000
     5 C5      -0.6770   0.5597   0.2520   C.ar      1 RES1   0.0000
     6 C6      -1.8679  -0.0389   0.0946   C.ar      1 RES1   0.0000
     7 C7      -1.8949  -1.2958  -0.3734   C.ar      1 RES1   0.0000
     8 N8      -0.8562  -1.9509  -0.6769   N.ar      1 RES1   0.0000
     9 C9       0.2662  -1.3831  -0.5280   C.ar      1 RES1   0.0000
    10 H10      0.9778   2.1906   0.8004   H         1 RES1   0.0000
    11 H11      2.7232   2.0414   0.6391   H         1 RES1   0.0000
    12 H12     -0.6676   1.5910   0.6367   H         1 RES1   0.0000
    13 H13     -2.8036   0.4880   0.3439   H         1 RES1   0.0000
    14 H14     -2.8592  -1.8137  -0.5120   H         1 RES1   0.0000
    15 H15      1.1270  -2.0135  -0.8113   H         1 RES1   0.0000
@<TRIPOS>BOND
     1     1     2   am
     2     1    10    1
     3     1    11    1
     4     2     3    2
     5     2     4    1
     6     4     5   ar
     7     4     9   ar
     8     5     6   ar
     9     5    12    1
    10     6     7   ar
    11     6    13    1
    12     7     8   ar
    13     7    14    1
    14     8     9   ar
    15     9    15    1
@<TRIPOS>SUBSTRUCTURE
     1 RES1        1 GROUP             0 ****  ****    0  
