@<TRIPOS>MOLECULE
oxalic_acid
     8     7     1     0     0
SMALL
NO_CHARGES
****
Generated from the CSD

@<TRIPOS>ATOM
     1 O1      -1.7061   0.5401   0.0886   O.3       1 RES1   0.0000
     2 C2      -0.5400  -0.1421   0.0219   C.2       1 RES1   0.0000
     3 O3      -0.5957  -1.3542   0.0005   O.2       1 RES1   0.0000
     4 C4       0.6841   0.4438  -0.0222   C.2       1 RES1   0.0000
     5 O5       0.7806   1.6585  -0.0027   O.2       1 RES1   0.0000
     6 O6       1.8010  -0.3280  -0.0880   O.3       1 RES1   0.0000
     7 H       -2.4411  -0.0941   0.1098   H         1 RES1   0.0000
     8 H        1.5651  -1.2699  -0.0969   H         1 RES1   0.0000
@<TRIPOS>BOND
     1     1     2    1
     2     1     7    1
     3     2     3    2
     4     2     4    1
     5     4     5    2
     6     4     6    1
     7     6     8    1
@<TRIPOS>SUBSTRUCTURE
     1 RES1        1 GROUP             0 A     ****    0  
