@<TRIPOS>MOLECULE
pamoic_acid
    45    48     1     0     0
SMALL
NO_CHARGES
****
Generated from the CSD

@<TRIPOS>ATOM
     1 C1      -1.5547   2.4168   4.5094   C.3       1 RES1   0.0000
     2 H1      -2.2215   3.1177   5.0506   H         1 RES1   0.0000
     3 C2      -2.2095   1.5735   3.4111   C.ar      1 RES1   0.0000
     4 C3      -1.3945   0.7137   2.7507   C.ar      1 RES1   0.0000
     5 C4      -1.8995  -0.0688   1.7701   C.ar      1 RES1   0.0000
     6 C5      -1.1615  -0.9702   1.0521   C.2       1 RES1   0.0000
     7 C6      -3.2080   0.0273   1.4781   C.ar      1 RES1   0.0000
     8 H2      -3.6503  -0.6011   0.6869   H         1 RES1   0.0000
     9 C7      -4.0213   0.8779   2.1234   C.ar      1 RES1   0.0000
    10 C8      -5.3236   0.9288   1.7825   C.ar      1 RES1   0.0000
    11 H3      -5.7347   0.2853   0.9855   H         1 RES1   0.0000
    12 C9      -6.1656   1.7660   2.4022   C.ar      1 RES1   0.0000
    13 H4      -7.2308   1.8044   2.1200   H         1 RES1   0.0000
    14 C10     -5.6908   2.5584   3.3702   C.ar      1 RES1   0.0000
    15 H5      -6.3718   3.2549   3.8887   H         1 RES1   0.0000
    16 C11     -4.3924   2.5027   3.7042   C.ar      1 RES1   0.0000
    17 H6      -4.0988   3.1916   4.5081   H         1 RES1   0.0000
    18 C12     -3.5243   1.6652   3.0988   C.ar      1 RES1   0.0000
    19 O1      -0.0737   0.6998   3.0972   O.3       1 RES1   0.0000
    20 O2       0.0211  -1.1666   1.2193   O.2       1 RES1   0.0000
    21 O3      -1.7022  -1.7415   0.0730   O.3       1 RES1   0.0000
    22 H7       0.5060   0.2602   2.4653   H         1 RES1   0.0000
    23 H8      -1.0015  -2.3045  -0.2932   H         1 RES1   0.0000
    24 H1A     -0.8879   3.1177   3.9682   H         1 RES1   0.0000
    25 C2A     -0.8998   1.5735   5.6077   C.ar      1 RES1   0.0000
    26 C3A     -1.7148   0.7137   6.2681   C.ar      1 RES1   0.0000
    27 C4A     -1.2099  -0.0688   7.2487   C.ar      1 RES1   0.0000
    28 C5A     -1.9478  -0.9702   7.9668   C.2       1 RES1   0.0000
    29 C6A      0.0987   0.0273   7.5407   C.ar      1 RES1   0.0000
    30 H2A      0.5410  -0.6011   8.3319   H         1 RES1   0.0000
    31 C7A      0.9120   0.8779   6.8954   C.ar      1 RES1   0.0000
    32 C8A      2.2143   0.9288   7.2363   C.ar      1 RES1   0.0000
    33 H3A      2.6254   0.2853   8.0333   H         1 RES1   0.0000
    34 C9A      3.0563   1.7660   6.6166   C.ar      1 RES1   0.0000
    35 H4A      4.1215   1.8045   6.8989   H         1 RES1   0.0000
    36 C10A     2.5815   2.5584   5.6487   C.ar      1 RES1   0.0000
    37 H5A      3.2625   3.2549   5.1302   H         1 RES1   0.0000
    38 C11A     1.2831   2.5027   5.3146   C.ar      1 RES1   0.0000
    39 H6A      0.9895   3.1916   4.5108   H         1 RES1   0.0000
    40 C12A     0.4149   1.6652   5.9200   C.ar      1 RES1   0.0000
    41 O1A     -3.0356   0.6998   5.9216   O.3       1 RES1   0.0000
    42 O2A     -3.1304  -1.1666   7.7996   O.2       1 RES1   0.0000
    43 O3A     -1.4071  -1.7415   8.9458   O.3       1 RES1   0.0000
    44 H7A     -3.6154   0.2602   6.5536   H         1 RES1   0.0000
    45 H8A     -2.1078  -2.3046   9.3120   H         1 RES1   0.0000
@<TRIPOS>BOND
     1     1     2    1
     2     1     3    1
     3     1    24    1
     4     1    25    1
     5     3     4   ar
     6     3    18   ar
     7     4     5   ar
     8     4    19    1
     9     5     6    1
    10     5     7   ar
    11     6    20    2
    12     6    21    1
    13     7     8    1
    14     7     9   ar
    15     9    10   ar
    16     9    18   ar
    17    10    11    1
    18    10    12   ar
    19    12    13    1
    20    12    14   ar
    21    14    15    1
    22    14    16   ar
    23    16    17    1
    24    16    18   ar
    25    19    22    1
    26    21    23    1
    27    25    26   ar
    28    25    40   ar
    29    26    27   ar
    30    26    41    1
    31    27    28    1
    32    27    29   ar
    33    28    42    2
    34    28    43    1
    35    29    30    1
    36    29    31   ar
    37    31    32   ar
    38    31    40   ar
    39    32    33    1
    40    32    34   ar
    41    34    35    1
    42    34    36   ar
    43    36    37    1
    44    36    38   ar
    45    38    39    1
    46    38    40   ar
    47    41    44    1
    48    43    45    1
@<TRIPOS>SUBSTRUCTURE
     1 RES1        1 GROUP             0 A     ****    0  
