@<TRIPOS>MOLECULE
pimelic_acid
    23    22     1     0     0
SMALL
NO_CHARGES
****
Generated from the CSD

@<TRIPOS>ATOM
     1 C1       3.8610  -0.2371   0.0049   C.2       1 RES1   0.0000
     2 C2       2.4858  -0.8825   0.0002   C.3       1 RES1   0.0000
     3 C3       1.2841   0.0755   0.0008   C.3       1 RES1   0.0000
     4 C4      -0.0617  -0.6710   0.0000   C.3       1 RES1   0.0000
     5 C5      -1.2489   0.3083   0.0008   C.3       1 RES1   0.0000
     6 C6      -2.6051  -0.4147   0.0002   C.3       1 RES1   0.0000
     7 C7      -3.8397   0.4705   0.0049   C.2       1 RES1   0.0000
     8 O8       4.9137  -0.8299   0.0206   O.2       1 RES1   0.0000
     9 O9       3.8211   1.1074  -0.0122   O.3       1 RES1   0.0000
    10 O10     -4.9827   0.0795   0.0206   O.2       1 RES1   0.0000
    11 O11     -3.5553   1.7852  -0.0122   O.3       1 RES1   0.0000
    12 H12      2.4305  -1.5442   0.8968   H         1 RES1   0.0000
    13 H13      2.4352  -1.5377  -0.9013   H         1 RES1   0.0000
    14 H14      1.3325   0.7316  -0.9011   H         1 RES1   0.0000
    15 H15      1.3332   0.7306   0.9034   H         1 RES1   0.0000
    16 H16     -0.1222  -1.3294   0.8991   H         1 RES1   0.0000
    17 H17     -0.1221  -1.3287  -0.8996   H         1 RES1   0.0000
    18 H18     -1.1769   0.9622  -0.9011   H         1 RES1   0.0000
    19 H19     -1.1777   0.9613   0.9034   H         1 RES1   0.0000
    20 H20     -2.6712  -1.0754   0.8968   H         1 RES1   0.0000
    21 H21     -2.6747  -1.0681  -0.9013   H         1 RES1   0.0000
    22 H22      4.7357   1.4337  -0.0119   H         1 RES1   0.0000
    23 H23     -4.3952   2.2727  -0.0119   H         1 RES1   0.0000
@<TRIPOS>BOND
     1     1     2    1
     2     1     8    2
     3     1     9    1
     4     2     3    1
     5     2    12    1
     6     2    13    1
     7     3     4    1
     8     3    14    1
     9     3    15    1
    10     4     5    1
    11     4    16    1
    12     4    17    1
    13     5     6    1
    14     5    18    1
    15     5    19    1
    16     6     7    1
    17     6    20    1
    18     6    21    1
    19     7    10    2
    20     7    11    1
    21     9    22    1
    22    11    23    1
@<TRIPOS>SUBSTRUCTURE
     1 RES1        1 GROUP             0 ****  ****    0  
