@<TRIPOS>MOLECULE
piperazine
    16    16     1     0     0
SMALL
NO_CHARGES
****
Generated from the CSD

@<TRIPOS>ATOM
     1 N1      -0.5719   1.0282   0.8190   N.3       1 RES1   0.0000
     2 C2       0.3407   0.0392   1.3904   C.3       1 RES1   0.0000
     3 C3       1.3084  -0.4857   0.3210   C.3       1 RES1   0.0000
     4 N4       0.5713  -1.0283  -0.8189   N.3       1 RES1   0.0000
     5 C5      -0.3404  -0.0387  -1.3905   C.3       1 RES1   0.0000
     6 C6      -1.3086   0.4853  -0.3214   C.3       1 RES1   0.0000
     7 H7      -1.2543   1.3350   1.5562   H         1 RES1   0.0000
     8 H8       0.9087   0.5077   2.2284   H         1 RES1   0.0000
     9 H9      -0.2480  -0.8046   1.8223   H         1 RES1   0.0000
    10 H10      1.9596  -1.2840   0.7486   H         1 RES1   0.0000
    11 H11      1.9785   0.3362  -0.0261   H         1 RES1   0.0000
    12 H12      1.2531  -1.3362  -1.5561   H         1 RES1   0.0000
    13 H13     -0.9078  -0.5059  -2.2294   H         1 RES1   0.0000
    14 H14      0.2487   0.8053  -1.8208   H         1 RES1   0.0000
    15 H15     -1.9606   1.2831  -0.7486   H         1 RES1   0.0000
    16 H16     -1.9781  -0.3370   0.0254   H         1 RES1   0.0000
@<TRIPOS>BOND
     1     1     2    1
     2     1     6    1
     3     1     7    1
     4     2     3    1
     5     2     8    1
     6     2     9    1
     7     3     4    1
     8     3    10    1
     9     3    11    1
    10     4     5    1
    11     4    12    1
    12     5     6    1
    13     5    13    1
    14     5    14    1
    15     6    15    1
    16     6    16    1
@<TRIPOS>SUBSTRUCTURE
     1 RES1        1 GROUP             0 ****  ****    0  
