@<TRIPOS>MOLECULE
propylparaben
    25    25     1     0     0
SMALL
NO_CHARGES
****
Generated from the CSD

@<TRIPOS>ATOM
     1 O3       9.7748   0.7425   9.2953   O.3       1 RES1   0.0000
     2 O1       3.9394   0.2998   7.0160   O.3       1 RES1   0.0000
     3 H1       3.9866   0.8364   6.3718   H         1 RES1   0.0000
     4 O2       8.9447  -0.6836  10.8231   O.2       1 RES1   0.0000
     5 C4       7.5197   0.1603   9.0945   C.ar      1 RES1   0.0000
     6 C9      11.2826   1.5324  11.0590   C.3       1 RES1   0.0000
     7 H9A     10.6547   1.2774  11.7805   H         1 RES1   0.0000
     8 H9B     11.0821   2.4643  10.7914   H         1 RES1   0.0000
     9 C6       5.2343  -0.5556   8.7820   C.ar      1 RES1   0.0000
    10 H6       4.4918  -1.0797   9.0562   H         1 RES1   0.0000
    11 C3       7.3969   0.9975   7.9994   C.ar      1 RES1   0.0000
    12 H3       8.1328   1.5365   7.7356   H         1 RES1   0.0000
    13 C8      11.0948   0.6138   9.8769   C.3       1 RES1   0.0000
    14 H8A     11.7754   0.8231   9.1898   H         1 RES1   0.0000
    15 H8B     11.2333  -0.3231  10.1667   H         1 RES1   0.0000
    16 C2       6.2154   1.0573   7.2850   C.ar      1 RES1   0.0000
    17 H2       6.1464   1.6271   6.5279   H         1 RES1   0.0000
    18 C1       5.1238   0.2807   7.6766   C.ar      1 RES1   0.0000
    19 C7       8.7930   0.0233   9.8524   C.2       1 RES1   0.0000
    20 C5       6.4216  -0.6246   9.4828   C.ar      1 RES1   0.0000
    21 H5       6.4954  -1.2060  10.2309   H         1 RES1   0.0000
    22 C10     12.7201   1.4419  11.5729   C.3       1 RES1   0.0000
    23 H10A    12.9442   0.5058  11.7544   H         1 RES1   0.0000
    24 H10B    12.8058   1.9643  12.3982   H         1 RES1   0.0000
    25 H10C    13.3323   1.7990  10.8955   H         1 RES1   0.0000
@<TRIPOS>BOND
     1     1    13    1
     2     1    19    1
     3     2     3    1
     4     2    18    1
     5     4    19    2
     6     5    11   ar
     7     5    19    1
     8     5    20   ar
     9     6     7    1
    10     6     8    1
    11     6    13    1
    12     6    22    1
    13     9    10    1
    14     9    18   ar
    15     9    20   ar
    16    11    12    1
    17    11    16   ar
    18    13    14    1
    19    13    15    1
    20    16    17    1
    21    16    18   ar
    22    20    21    1
    23    22    23    1
    24    22    24    1
    25    22    25    1
@<TRIPOS>SUBSTRUCTURE
     1 RES1        1 GROUP             0 ****  ****    0  
