@<TRIPOS>MOLECULE
pyrazine
    10    10     1     0     0
SMALL
NO_CHARGES
****
Generated from the CSD

@<TRIPOS>ATOM
     1 N1       1.3834   0.0000   0.0000   N.ar      1 RES1   0.0000
     2 C2       0.6782   0.4246   1.0244   C.ar      1 RES1   0.0000
     3 H3       1.2111   0.7325   1.8738   H         1 RES1   0.0000
     4 C4       0.6782  -0.4246  -1.0244   C.ar      1 RES1   0.0000
     5 C5      -0.6782   0.4246   1.0244   C.ar      1 RES1   0.0000
     6 C6      -0.6782  -0.4246  -1.0244   C.ar      1 RES1   0.0000
     7 H7       1.2111  -0.7325  -1.8738   H         1 RES1   0.0000
     8 N8      -1.3834   0.0000   0.0000   N.ar      1 RES1   0.0000
     9 H9      -1.2111   0.7325   1.8738   H         1 RES1   0.0000
    10 H10     -1.2111  -0.7325  -1.8738   H         1 RES1   0.0000
@<TRIPOS>BOND
     1     1     2   ar
     2     4     1   ar
     3     2     3    1
     4     5     2   ar
     5     6     4   ar
     6     7     4    1
     7     8     5   ar
     8     9     5    1
     9     6     8   ar
    10    10     6    1
@<TRIPOS>SUBSTRUCTURE
     1 RES1        1 GROUP             0 ****  ****    0  
