@<TRIPOS>MOLECULE
riboflavin
    47    49     1     0     0
SMALL
NO_CHARGES
****
Generated from the CSD

@<TRIPOS>ATOM
     1 C1       3.2851   2.7209   3.0985   C.3       1 RES1   0.0000
     2 C2       3.5117   1.4994   2.2318   C.ar      1 RES1   0.0000
     3 C3       2.8341   1.3623   1.0766   C.ar      1 RES1   0.0000
     4 C4       2.9818   0.3050   0.2537   C.ar      1 RES1   0.0000
     5 C5       3.8416  -0.6539   0.6488   C.ar      1 RES1   0.0000
     6 N6       4.0330  -1.6925  -0.0478   N.2       1 RES1   0.0000
     7 C7       3.4145  -1.8570  -1.1407   C.2       1 RES1   0.0000
     8 C8       3.6570  -3.0031  -1.8360   C.2       1 RES1   0.0000
     9 N9       2.9492  -3.1122  -2.9975   N.am      1 RES1   0.0000
    10 O10      4.4119  -3.8929  -1.5174   O.2       1 RES1   0.0000
    11 C11      2.5438  -0.9309  -1.6093   C.2       1 RES1   0.0000
    12 N12      2.3930   0.0961  -0.8624   N.pl3     1 RES1   0.0000
    13 C13      1.4318   1.1349  -1.3560   C.3       1 RES1   0.0000
    14 C14      0.0327   0.9970  -0.7365   C.3       1 RES1   0.0000
    15 O15     -0.6128   2.2474  -0.8245   O.3       1 RES1   0.0000
    16 C16     -0.8445  -0.0576  -1.4014   C.3       1 RES1   0.0000
    17 O17     -0.4445  -1.3517  -1.0129   O.3       1 RES1   0.0000
    18 C18     -2.3421   0.0313  -1.1270   C.3       1 RES1   0.0000
    19 O19     -2.9313  -1.0805  -1.7651   O.3       1 RES1   0.0000
    20 C20     -2.7450   0.0016   0.3383   C.3       1 RES1   0.0000
    21 O21     -2.4261   1.2282   0.9613   O.3       1 RES1   0.0000
    22 N22      1.9398  -1.1114  -2.7125   N.2       1 RES1   0.0000
    23 C23      2.0849  -2.1459  -3.4245   C.2       1 RES1   0.0000
    24 O24      1.4948  -2.3227  -4.4659   O.2       1 RES1   0.0000
    25 C25      4.5248  -0.5310   1.7997   C.ar      1 RES1   0.0000
    26 C26      4.3791   0.5368   2.6016   C.ar      1 RES1   0.0000
    27 C27      5.1841   0.6379   3.8791   C.3       1 RES1   0.0000
    28 H28      3.1163   2.4373   4.1614   H         1 RES1   0.0000
    29 H29      2.3935   3.3118   2.7921   H         1 RES1   0.0000
    30 H30      4.1662   3.3999   3.0423   H         1 RES1   0.0000
    31 H31      2.1361   2.1779   0.8403   H         1 RES1   0.0000
    32 H32      3.0706  -3.9360  -3.5601   H         1 RES1   0.0000
    33 H33      1.8484   2.1541  -1.1938   H         1 RES1   0.0000
    34 H34      1.3432   1.1694  -2.4645   H         1 RES1   0.0000
    35 H35      0.1259   0.7813   0.3521   H         1 RES1   0.0000
    36 H36     -1.3104   2.2896  -0.1658   H         1 RES1   0.0000
    37 H37     -0.7035  -0.0011  -2.5072   H         1 RES1   0.0000
    38 H38     -1.0688  -1.9642  -1.4160   H         1 RES1   0.0000
    39 H39     -2.7744   0.9336  -1.6197   H         1 RES1   0.0000
    40 H40     -3.8343  -0.8822  -2.0201   H         1 RES1   0.0000
    41 H41     -3.8460  -0.1285   0.4438   H         1 RES1   0.0000
    42 H42     -2.2352  -0.8114   0.8994   H         1 RES1   0.0000
    43 H43     -2.7497   1.2297   1.8638   H         1 RES1   0.0000
    44 H44      5.2280  -1.3278   2.0976   H         1 RES1   0.0000
    45 H45      6.0001  -0.1170   3.9323   H         1 RES1   0.0000
    46 H46      4.5269   0.4780   4.7637   H         1 RES1   0.0000
    47 H47      5.6749   1.6330   3.9692   H         1 RES1   0.0000
@<TRIPOS>BOND
     1     1     2    1
     2     1    28    1
     3     1    29    1
     4     1    30    1
     5     2     3   ar
     6     2    26   ar
     7     3     4   ar
     8     3    31    1
     9     4     5   ar
    10     4    12    1
    11     6     5    1
    12     5    25   ar
    13     7     6    2
    14     8     7    1
    15    11     7    1
    16     9     8   am
    17     8    10    2
    18    23     9   am
    19     9    32    1
    20    12    11    1
    21    11    22    2
    22    12    13    1
    23    13    14    1
    24    13    33    1
    25    13    34    1
    26    14    15    1
    27    14    16    1
    28    14    35    1
    29    15    36    1
    30    16    17    1
    31    16    18    1
    32    16    37    1
    33    17    38    1
    34    18    19    1
    35    18    20    1
    36    18    39    1
    37    19    40    1
    38    20    21    1
    39    20    41    1
    40    20    42    1
    41    21    43    1
    42    22    23    1
    43    23    24    2
    44    25    26   ar
    45    25    44    1
    46    26    27    1
    47    27    45    1
    48    27    46    1
    49    27    47    1
@<TRIPOS>SUBSTRUCTURE
     1 RES1        1 GROUP             0 ****  ****    0  
