@<TRIPOS>MOLECULE
saccharin
    17    18     1     0     0
SMALL
NO_CHARGES
****
Generated from the CSD

@<TRIPOS>ATOM
     1 C1      -0.4375  -3.3888   0.4069   C.ar      1 RES1   0.0000
     2 C2      -0.4994  -4.7073   0.6601   C.ar      1 RES1   0.0000
     3 C3       0.5955  -5.4773   0.5454   C.ar      1 RES1   0.0000
     4 C4       0.7212  -2.8195   0.0349   C.ar      1 RES1   0.0000
     5 C5       1.8071  -3.5984  -0.0760   C.ar      1 RES1   0.0000
     6 C6       1.7537  -4.9123   0.1744   C.ar      1 RES1   0.0000
     7 S7       3.2968  -5.8128  -0.0200   S.o2      1 RES1   0.0000
     8 N8       3.8632  -4.2554  -0.4347   N.am      1 RES1   0.0000
     9 C9       3.0348  -3.1672  -0.4391   C.2       1 RES1   0.0000
    10 O10      3.4249  -2.0636  -0.7295   O.2       1 RES1   0.0000
    11 O11      3.3396  -6.6303  -1.2244   O.2       1 RES1   0.0000
    12 O12      3.9133  -6.1802   1.2470   O.2       1 RES1   0.0000
    13 H       -1.3446  -2.7689   0.5049   H         1 RES1   0.0000
    14 H       -1.4572  -5.1618   0.9646   H         1 RES1   0.0000
    15 H        0.5393  -6.5580   0.7541   H         1 RES1   0.0000
    16 H        0.7652  -1.7379  -0.1713   H         1 RES1   0.0000
    17 H        4.8233  -4.0946  -0.6871   H         1 RES1   0.0000
@<TRIPOS>BOND
     1     1     2   ar
     2     1     4   ar
     3     1    13    1
     4     2     3   ar
     5     2    14    1
     6     3     6   ar
     7     3    15    1
     8     4     5   ar
     9     4    16    1
    10     5     6   ar
    11     5     9    1
    12     6     7    1
    13     7     8    1
    14     7    11    2
    15     7    12    2
    16     8     9   am
    17     8    17    1
    18     9    10    2
@<TRIPOS>SUBSTRUCTURE
     1 RES1        1 GROUP             0 A     ****    0  
