@<TRIPOS>MOLECULE
sorbic_acid
    16    15     1     0     0
SMALL
NO_CHARGES
****
Generated from the CSD

@<TRIPOS>ATOM
     1 C1      -3.4410  -0.4050   0.0455   C.3       1 RES1   0.0000
     2 C2      -2.1277   0.3247   0.1515   C.2       1 RES1   0.0000
     3 C3      -0.9308  -0.2656  -0.0022   C.2       1 RES1   0.0000
     4 C4       0.2330   0.4012   0.0959   C.2       1 RES1   0.0000
     5 C5       1.4247  -0.2022  -0.0601   C.2       1 RES1   0.0000
     6 C6       2.6277   0.4274   0.0294   C.2       1 RES1   0.0000
     7 O7       2.7429   1.6114   0.2619   O.2       1 RES1   0.0000
     8 O8       3.7842  -0.2579  -0.1417   O.3       1 RES1   0.0000
     9 H       -4.0047  -0.3165   1.0020   H         1 RES1   0.0000
    10 H       -4.0588   0.0380  -0.7685   H         1 RES1   0.0000
    11 H       -3.3117  -1.4881  -0.1753   H         1 RES1   0.0000
    12 H       -2.1921   1.4051   0.3690   H         1 RES1   0.0000
    13 H       -0.9176  -1.3473  -0.2183   H         1 RES1   0.0000
    14 H        0.1981   1.4824   0.3125   H         1 RES1   0.0000
    15 H        1.4617  -1.2844  -0.2769   H         1 RES1   0.0000
    16 H        4.5229   0.3637  -0.0399   H         1 RES1   0.0000
@<TRIPOS>BOND
     1     1     2    1
     2     1     9    1
     3     1    10    1
     4     1    11    1
     5     2     3    2
     6     2    12    1
     7     3     4    1
     8     3    13    1
     9     4     5    2
    10     4    14    1
    11     5     6    1
    12     5    15    1
    13     6     7    2
    14     6     8    1
    15     8    16    1
@<TRIPOS>SUBSTRUCTURE
     1 RES1        1 GROUP             0 A     ****    0  
