@<TRIPOS>MOLECULE
succinic_acid
    14    13     1     0     0
SMALL
NO_CHARGES
****
Generated from the CSD

@<TRIPOS>ATOM
     1 C1      -1.8409  -0.4840   0.0029   C.2       1 RES1   0.0000
     2 C2      -0.5439   0.3052  -0.0007   C.3       1 RES1   0.0000
     3 C3       0.7045  -0.5930   0.0002   C.3       1 RES1   0.0000
     4 C4       2.0500   0.1114   0.0037   C.2       1 RES1   0.0000
     5 O5      -1.9575  -1.6859   0.0168   O.2       1 RES1   0.0000
     6 O6      -2.9150   0.3270  -0.0107   O.3       1 RES1   0.0000
     7 O7       3.1293  -0.4316   0.0178   O.2       1 RES1   0.0000
     8 O8       1.9481   1.4520  -0.0110   O.3       1 RES1   0.0000
     9 H9      -0.5398   0.9537  -0.9088   H         1 RES1   0.0000
    10 H10     -0.5382   0.9583   0.9041   H         1 RES1   0.0000
    11 H11      0.6825  -1.2538   0.8996   H         1 RES1   0.0000
    12 H12      0.6857  -1.2510  -0.9012   H         1 RES1   0.0000
    13 H13     -3.7108  -0.2293  -0.0057   H         1 RES1   0.0000
    14 H14      2.8464   1.8204  -0.0075   H         1 RES1   0.0000
@<TRIPOS>BOND
     1     1     2    1
     2     1     5    2
     3     1     6    1
     4     2     3    1
     5     2     9    1
     6     2    10    1
     7     3     4    1
     8     3    11    1
     9     3    12    1
    10     4     7    2
    11     4     8    1
    12     6    13    1
    13     8    14    1
@<TRIPOS>SUBSTRUCTURE
     1 RES1        1 GROUP             0 ****  ****    0  
