@<TRIPOS>MOLECULE
t-butylhydroxyanisole
    29    29     1     0     0
SMALL
NO_CHARGES
****
Generated from the CSD

@<TRIPOS>ATOM
     1 C1      -2.4050   0.9819   0.0443   C.ar      1 RES1   0.0000
     2 C2      -2.3490  -0.4097   0.0322   C.ar      1 RES1   0.0000
     3 C3      -1.1409  -1.1127   0.0198   C.ar      1 RES1   0.0000
     4 C4       0.0656  -0.3873   0.0125   C.ar      1 RES1   0.0000
     5 C5      -0.0337   1.0131   0.0281   C.ar      1 RES1   0.0000
     6 C6      -1.2309   1.7422   0.0492   C.ar      1 RES1   0.0000
     7 O7      -1.1753   3.1139   0.0571   O.3       1 RES1   0.0000
     8 O8      -1.1921  -2.4709   0.0035   O.3       1 RES1   0.0000
     9 C9       1.4367  -1.0847  -0.0168   C.3       1 RES1   0.0000
    10 C10     -2.3861   3.8331   0.0271   C.3       1 RES1   0.0000
    11 C11      2.6398  -0.1079  -0.0020   C.3       1 RES1   0.0000
    12 C12      1.5758  -1.9105  -1.3155   C.3       1 RES1   0.0000
    13 C13      1.6082  -1.9822   1.2296   C.3       1 RES1   0.0000
    14 H14     -3.3991   1.4545   0.0501   H         1 RES1   0.0000
    15 H15     -3.2936  -0.9793   0.0297   H         1 RES1   0.0000
    16 H16      0.8755   1.6318   0.0227   H         1 RES1   0.0000
    17 H17     -0.2974  -2.8381  -0.0349   H         1 RES1   0.0000
    18 H18     -2.1376   4.9182   0.0284   H         1 RES1   0.0000
    19 H19     -2.9477   3.6054  -0.9062   H         1 RES1   0.0000
    20 H20     -2.9890   3.6139   0.9364   H         1 RES1   0.0000
    21 H21      2.6504   0.5593  -0.8934   H         1 RES1   0.0000
    22 H22      2.6599   0.5175   0.9193   H         1 RES1   0.0000
    23 H23      3.6090  -0.6564  -0.0214   H         1 RES1   0.0000
    24 H24      1.4749  -1.2570  -2.2120   H         1 RES1   0.0000
    25 H25      0.8199  -2.7173  -1.4144   H         1 RES1   0.0000
    26 H26      2.5691  -2.4103  -1.3742   H         1 RES1   0.0000
    27 H27      1.5144  -1.3825   2.1636   H         1 RES1   0.0000
    28 H28      0.8687  -2.8070   1.2947   H         1 RES1   0.0000
    29 H29      2.6090  -2.4705   1.2434   H         1 RES1   0.0000
@<TRIPOS>BOND
     1     1     2   ar
     2     1     6   ar
     3     1    14    1
     4     2     3   ar
     5     2    15    1
     6     3     4   ar
     7     3     8    1
     8     4     5   ar
     9     4     9    1
    10     5     6   ar
    11     5    16    1
    12     6     7    1
    13     7    10    1
    14     8    17    1
    15     9    11    1
    16     9    12    1
    17     9    13    1
    18    10    18    1
    19    10    19    1
    20    10    20    1
    21    11    21    1
    22    11    22    1
    23    11    23    1
    24    12    24    1
    25    12    25    1
    26    12    26    1
    27    13    27    1
    28    13    28    1
    29    13    29    1
@<TRIPOS>SUBSTRUCTURE
     1 RES1        1 GROUP             0 ****  ****    0  
