@<TRIPOS>MOLECULE
t-butylamine
    16    15     1     0     0
SMALL
NO_CHARGES
****
Generated from the CSD

@<TRIPOS>ATOM
     1 C1      -0.8632   1.2627  -0.3508   C.3       1 RES1   0.0000
     2 C2       0.1327   0.1309  -0.0872   C.3       1 RES1   0.0000
     3 C3       1.4643   0.4532  -0.7652   C.3       1 RES1   0.0000
     4 C4       0.3637  -0.0067   1.4176   C.3       1 RES1   0.0000
     5 N5      -0.3257  -1.1558  -0.5894   N.3       1 RES1   0.0000
     6 H       -1.0483   1.4004  -1.4287   H         1 RES1   0.0000
     7 H       -1.8346   1.0729   0.1344   H         1 RES1   0.0000
     8 H       -0.4635   2.2082   0.0485   H         1 RES1   0.0000
     9 H        1.8696   1.4036  -0.3844   H         1 RES1   0.0000
    10 H        1.3537   0.5484  -1.8581   H         1 RES1   0.0000
    11 H        2.2131  -0.3338  -0.5725   H         1 RES1   0.0000
    12 H       -0.5680  -0.2536   1.9531   H         1 RES1   0.0000
    13 H        0.7518   0.9355   1.8348   H         1 RES1   0.0000
    14 H        1.0968  -0.8007   1.6393   H         1 RES1   0.0000
    15 H       -0.4817  -1.1124  -1.5769   H         1 RES1   0.0000
    16 H       -1.1960  -1.4089  -0.1651   H         1 RES1   0.0000
@<TRIPOS>BOND
     1     1     2    1
     2     2     3    1
     3     2     4    1
     4     2     5    1
     5     1     6    1
     6     1     7    1
     7     1     8    1
     8     3     9    1
     9     3    10    1
    10     3    11    1
    11     4    12    1
    12     4    13    1
    13     4    14    1
    14     5    15    1
    15     5    16    1
@<TRIPOS>SUBSTRUCTURE
     1 RES1        1 GROUP             0 ****  ****    0  
