@<TRIPOS>MOLECULE
thymidine
    31    32     1     0     0
SMALL
NO_CHARGES
****
Generated from the CSD

@<TRIPOS>ATOM
     1 N1       0.3073   0.5578   0.6839   N.am      1 RES1   0.0000
     2 C2      -0.7364   0.2634   1.5277   C.2       1 RES1   0.0000
     3 N3      -1.1016   1.2313   2.4212   N.am      1 RES1   0.0000
     4 C4      -0.5005   2.4531   2.5359   C.2       1 RES1   0.0000
     5 C5       0.5184   2.7155   1.6772   C.2       1 RES1   0.0000
     6 C6       0.8849   1.7765   0.7862   C.2       1 RES1   0.0000
     7 C7       0.7495  -0.4121  -0.3347   C.3       1 RES1   0.0000
     8 C8       1.2115   4.0561   1.7444   C.3       1 RES1   0.0000
     9 C9      -0.8293  -1.6682  -1.4030   C.3       1 RES1   0.0000
    10 C10     -1.3309  -2.0384  -2.7880   C.3       1 RES1   0.0000
    11 O11     -0.8903   3.2342   3.3710   O.2       1 RES1   0.0000
    12 C12      0.1006  -2.6874  -0.7663   C.3       1 RES1   0.0000
    13 C13      0.9872  -1.8473   0.1465   C.3       1 RES1   0.0000
    14 O14     -1.3346  -0.7838   1.5297   O.2       1 RES1   0.0000
    15 O15     -0.1175  -0.4669  -1.4487   O.3       1 RES1   0.0000
    16 O16     -2.2726  -1.0822  -3.2326   O.3       1 RES1   0.0000
    17 O17      0.8980  -3.3178  -1.7398   O.3       1 RES1   0.0000
    18 H18     -1.8663   1.0251   3.0417   H         1 RES1   0.0000
    19 H19      1.7066   2.0039   0.0887   H         1 RES1   0.0000
    20 H20      1.7268  -0.0591  -0.7511   H         1 RES1   0.0000
    21 H21      2.0230   4.1580   0.9899   H         1 RES1   0.0000
    22 H22      0.4840   4.8794   1.5598   H         1 RES1   0.0000
    23 H23      1.6719   4.2069   2.7475   H         1 RES1   0.0000
    24 H24     -1.7160  -1.5167  -0.7422   H         1 RES1   0.0000
    25 H25     -0.5099  -2.0648  -3.5381   H         1 RES1   0.0000
    26 H26     -1.8452  -3.0255  -2.7739   H         1 RES1   0.0000
    27 H27     -0.4484  -3.4907  -0.2261   H         1 RES1   0.0000
    28 H28      0.7225  -1.9923   1.2163   H         1 RES1   0.0000
    29 H29      2.0581  -2.1446   0.0589   H         1 RES1   0.0000
    30 H30     -2.5432  -1.3017  -4.1273   H         1 RES1   0.0000
    31 H31      1.4236  -4.0041  -1.3219   H         1 RES1   0.0000
@<TRIPOS>BOND
     1     1     2   am
     2     6     1    1
     3     7     1    1
     4     2     3   am
     5     2    14    2
     6     3     4   am
     7     3    18    1
     8     5     4    1
     9     4    11    2
    10     5     6    2
    11     5     8    1
    12     6    19    1
    13     7    13    1
    14     7    15    1
    15     7    20    1
    16     8    21    1
    17     8    22    1
    18     8    23    1
    19     9    10    1
    20     9    12    1
    21    15     9    1
    22     9    24    1
    23    10    16    1
    24    10    25    1
    25    10    26    1
    26    12    13    1
    27    12    17    1
    28    12    27    1
    29    13    28    1
    30    13    29    1
    31    16    30    1
    32    17    31    1
@<TRIPOS>SUBSTRUCTURE
     1 RES1        1 GROUP             0 ****  ****    0  
