@<TRIPOS>MOLECULE
triphenylacetic_acid
    38    40     1     0     0
SMALL
NO_CHARGES
****
Generated from the CSD

@<TRIPOS>ATOM
     1 O1      -0.6186  -1.5603   1.4704   O.3       1 RES1   0.0000
     2 C2      -0.7359  -1.4183   0.1164   C.2       1 RES1   0.0000
     3 O3      -1.2222  -2.2849  -0.5607   O.2       1 RES1   0.0000
     4 C4      -0.0917  -0.0877  -0.3383   C.3       1 RES1   0.0000
     5 C5      -1.0216   0.7263  -1.2577   C.ar      1 RES1   0.0000
     6 C6      -2.2891   0.3092  -1.6765   C.ar      1 RES1   0.0000
     7 C7      -3.0900   1.1041  -2.4928   C.ar      1 RES1   0.0000
     8 C8      -2.6452   2.3581  -2.9121   C.ar      1 RES1   0.0000
     9 C9      -1.3891   2.8020  -2.4999   C.ar      1 RES1   0.0000
    10 C10     -0.6032   1.9938  -1.6851   C.ar      1 RES1   0.0000
    11 C11      0.1733   0.8444   0.8600   C.ar      1 RES1   0.0000
    12 C12      1.4351   1.3483   1.1874   C.ar      1 RES1   0.0000
    13 C13      1.6284   2.1725   2.2928   C.ar      1 RES1   0.0000
    14 C14      0.5489   2.5267   3.1030   C.ar      1 RES1   0.0000
    15 C15     -0.7246   2.0594   2.7785   C.ar      1 RES1   0.0000
    16 C16     -0.8993   1.2378   1.6697   C.ar      1 RES1   0.0000
    17 C17      1.1904  -0.5307  -1.0618   C.ar      1 RES1   0.0000
    18 C18      2.1831  -1.2271  -0.3609   C.ar      1 RES1   0.0000
    19 C19      3.3549  -1.6615  -0.9729   C.ar      1 RES1   0.0000
    20 C20      3.5600  -1.4230  -2.3318   C.ar      1 RES1   0.0000
    21 C21      2.5703  -0.7621  -3.0597   C.ar      1 RES1   0.0000
    22 C22      1.4041  -0.3352  -2.4299   C.ar      1 RES1   0.0000
    23 H       -0.2425  -0.7684   1.8668   H         1 RES1   0.0000
    24 H       -2.6911  -0.6669  -1.3740   H         1 RES1   0.0000
    25 H       -4.0790   0.7389  -2.8073   H         1 RES1   0.0000
    26 H       -3.2764   2.9865  -3.5558   H         1 RES1   0.0000
    27 H       -1.0204   3.7886  -2.8157   H         1 RES1   0.0000
    28 H        0.3849   2.3636  -1.3725   H         1 RES1   0.0000
    29 H        2.3047   1.1220   0.5541   H         1 RES1   0.0000
    30 H        2.6349   2.5525   2.5234   H         1 RES1   0.0000
    31 H        0.6972   3.1813   3.9738   H         1 RES1   0.0000
    32 H       -1.5906   2.3477   3.3929   H         1 RES1   0.0000
    33 H       -1.9169   0.8986   1.4178   H         1 RES1   0.0000
    34 H        2.0408  -1.4412   0.7085   H         1 RES1   0.0000
    35 H        4.1139  -2.2012  -0.3880   H         1 RES1   0.0000
    36 H        4.4787  -1.7680  -2.8267   H         1 RES1   0.0000
    37 H        2.7044  -0.5874  -4.1373   H         1 RES1   0.0000
    38 H        0.6366   0.1533  -3.0463   H         1 RES1   0.0000
@<TRIPOS>BOND
     1     1     2    1
     2     2     3    2
     3     2     4    1
     4     4     5    1
     5     5     6   ar
     6     6     7   ar
     7     7     8   ar
     8     8     9   ar
     9     9    10   ar
    10    10     5   ar
    11     4    11    1
    12    11    12   ar
    13    12    13   ar
    14    13    14   ar
    15    14    15   ar
    16    15    16   ar
    17    16    11   ar
    18     4    17    1
    19    17    18   ar
    20    18    19   ar
    21    19    20   ar
    22    20    21   ar
    23    21    22   ar
    24    22    17   ar
    25     1    23    1
    26     6    24    1
    27     7    25    1
    28     8    26    1
    29     9    27    1
    30    10    28    1
    31    12    29    1
    32    13    30    1
    33    14    31    1
    34    15    32    1
    35    16    33    1
    36    18    34    1
    37    19    35    1
    38    20    36    1
    39    21    37    1
    40    22    38    1
@<TRIPOS>SUBSTRUCTURE
     1 RES1        1 GROUP             0 ****  ****    0  
