@<TRIPOS>MOLECULE
urea
     8     7     1     0     0
SMALL
NO_CHARGES
****
Generated from the CSD

@<TRIPOS>ATOM
     1 N1       2.5299  -4.4538   0.4814   N.am      1 RES1   0.0000
     2 C2       1.6736  -3.5109   0.0003   C.2       1 RES1   0.0000
     3 O3       1.6060  -2.4318   0.5286   O.2       1 RES1   0.0000
     4 N4       0.8941  -3.7920  -1.0799   N.am      1 RES1   0.0000
     5 H5       2.6004  -5.3652   0.0511   H         1 RES1   0.0000
     6 H6       3.0921  -4.2089   1.2842   H         1 RES1   0.0000
     7 H7       0.2711  -3.0675  -1.4082   H         1 RES1   0.0000
     8 H8       0.9370  -4.6922  -1.5365   H         1 RES1   0.0000
@<TRIPOS>BOND
     1     1     2   am
     2     1     5    1
     3     1     6    1
     4     2     3    2
     5     2     4   am
     6     4     7    1
     7     4     8    1
@<TRIPOS>SUBSTRUCTURE
     1 RES1        1 GROUP             0 ****  ****    0  
