@<TRIPOS>MOLECULE
valerolactam
    16    16     1     0     0
SMALL
NO_CHARGES
****
Generated from the CSD

@<TRIPOS>ATOM
     1 O1       1.7671   0.2403  -1.6233   O.2       1 RES1   0.0000
     2 C2       1.0385  -0.0110  -0.6788   C.2       1 RES1   0.0000
     3 C3      -0.3413  -0.4743  -0.8523   C.3       1 RES1   0.0000
     4 C4      -1.0963  -1.0726   0.3423   C.3       1 RES1   0.0000
     5 C5      -0.8001  -0.2528   1.6009   C.3       1 RES1   0.0000
     6 C6       0.7170  -0.1983   1.7883   C.3       1 RES1   0.0000
     7 N7       1.3754   0.3284   0.5819   N.am      1 RES1   0.0000
     8 H       -0.8728   0.4228  -1.2181   H         1 RES1   0.0000
     9 H       -0.2891  -1.1705  -1.7021   H         1 RES1   0.0000
    10 H       -0.7766  -2.1156   0.5104   H         1 RES1   0.0000
    11 H       -2.1719  -1.1007   0.0969   H         1 RES1   0.0000
    12 H       -1.2044   0.7675   1.4901   H         1 RES1   0.0000
    13 H       -1.2626  -0.6925   2.5003   H         1 RES1   0.0000
    14 H        1.0909  -1.2088   2.0366   H         1 RES1   0.0000
    15 H        0.9877   0.4581   2.6327   H         1 RES1   0.0000
    16 H        2.3344   0.6247   0.6782   H         1 RES1   0.0000
@<TRIPOS>BOND
     1     1     2    2
     2     2     3    1
     3     3     4    1
     4     4     5    1
     5     5     6    1
     6     6     7    1
     7     7     2   am
     8     3     8    1
     9     3     9    1
    10     4    10    1
    11     4    11    1
    12     5    12    1
    13     5    13    1
    14     6    14    1
    15     6    15    1
    16     7    16    1
@<TRIPOS>SUBSTRUCTURE
     1 RES1        1 GROUP             0 ****  ****    0  
