@<TRIPOS>MOLECULE
xanthine
    15    16     1     0     0
SMALL
NO_CHARGES
****
Generated from the CSD

@<TRIPOS>ATOM
     1 N1      -3.4131  -0.1893  -0.0457   N.pl3     1 RES1   0.0000
     2 C2      -3.6654   1.0516   0.0256   C.2       1 RES1   0.0000
     3 N3      -2.6132   1.7515   0.1067   N.2       1 RES1   0.0000
     4 C4      -1.6605   0.9185   0.0847   C.2       1 RES1   0.0000
     5 N5      -0.3322   1.1014   0.1401   N.am      1 RES1   0.0000
     6 C6       0.5216   0.0427   0.0953   C.2       1 RES1   0.0000
     7 O7       1.7172   0.1886   0.1370   O.2       1 RES1   0.0000
     8 N8      -0.0369  -1.2083  -0.0007   N.am      1 RES1   0.0000
     9 C9      -1.3895  -1.4434  -0.0569   C.2       1 RES1   0.0000
    10 O10     -1.8185  -2.5700  -0.1414   O.2       1 RES1   0.0000
    11 C11     -2.1548  -0.3260  -0.0116   C.2       1 RES1   0.0000
    12 H12     -4.1120  -0.9625  -0.1196   H         1 RES1   0.0000
    13 H13     -4.6928   1.4322   0.0145   H         1 RES1   0.0000
    14 H14     -0.0038   2.0490   0.2125   H         1 RES1   0.0000
    15 H15      0.5826  -2.0005  -0.0326   H         1 RES1   0.0000
@<TRIPOS>BOND
     1     2     1    1
     2     1    11    1
     3     1    12    1
     4     3     2    2
     5     2    13    1
     6     4     3    1
     7     5     4    1
     8     4    11    2
     9     6     5   am
    10     5    14    1
    11     6     7    2
    12     8     6   am
    13     8     9   am
    14     8    15    1
    15     9    10    2
    16    11     9    1
@<TRIPOS>SUBSTRUCTURE
     1 RES1        1 GROUP             0 ****  ****    0  
